PDEW 2008  1  6  5 14 23.70  37.2200   22.6900  75.0 6.1 6.2 SOUTHERN GREECE
event name:      cmt1
time shift:      0.0
half duration:   1.0
latitude:        39.0
longitude:       70.3167
depth:           10.0
Mrr:        7.74e+24
Mtt:        -1.83e+25
Mpp:        1.06e+25
Mrt:        1.29e+25
Mrp:        -8.45e+24
Mtp:        -4.43e+24
PDEW 2008  1  6  5 14 23.70  37.2200   22.6900  75.0 6.1 6.2 SOUTHERN GREECE
event name:      cmt2
time shift:      0.2
half duration:   1.0
latitude:        39.0
longitude:       70.3167
depth:           2881.0
Mrr:        7.74e+24
Mtt:        -1.83e+25
Mpp:        1.06e+25
Mrt:        1.29e+25
Mrp:        -8.45e+24
Mtp:        -4.43e+24
PDEW 2008  1  6  5 14 23.70  37.2200   22.6900  75.0 6.1 6.2 SOUTHERN GREECE
event name:      cmt3
time shift:      0.0
half duration:   1.0
latitude:        53.0581
longitude:       70.2828
depth:           10.0
Mrr:        7.74e+24
Mtt:        -1.83e+25
Mpp:        1.06e+25
Mrt:        1.29e+25
Mrp:        -8.45e+24
Mtp:        -4.43e+24
PDEW 2008  1  6  5 14 23.70  37.2200   22.6900  75.0 6.1 6.2 SOUTHERN GREECE
event name:      cmt4
time shift:      0.2
half duration:   1.0
latitude:        53.0581
longitude:       70.2828
depth:           2881.0
Mrr:        7.74e+24
Mtt:        -1.83e+25
Mpp:        1.06e+25
Mrt:        1.29e+25
Mrp:        -8.45e+24
Mtp:        -4.43e+24
PDEW 2008  1  6  5 14 23.70  37.2200   22.6900  75.0 6.1 6.2 SOUTHERN GREECE
event name:      cmt5
time shift:      0.0
half duration:   1.0
latitude:        51.6807
longitude:       103.6438
depth:           10.0
Mrr:        7.74e+24
Mtt:        -1.83e+25
Mpp:        1.06e+25
Mrt:        1.29e+25
Mrp:        -8.45e+24
Mtp:        -4.43e+24
PDEW 2008  1  6  5 14 23.70  37.2200   22.6900  75.0 6.1 6.2 SOUTHERN GREECE
event name:      cmt6
time shift:      0.2
half duration:   1.0
latitude:        51.6807
longitude:       103.6438
depth:           2881.0
Mrr:        7.74e+24
Mtt:        -1.83e+25
Mpp:        1.06e+25
Mrt:        1.29e+25
Mrp:        -8.45e+24
Mtp:        -4.43e+24
PDEW 2008  1  6  5 14 23.70  37.2200   22.6900  75.0 6.1 6.2 SOUTHERN GREECE
event name:      cmt7
time shift:      0.0
half duration:   1.0
latitude:        23.5225
longitude:       45.5032
depth:           10.0
Mrr:        7.74e+24
Mtt:        -1.83e+25
Mpp:        1.06e+25
Mrt:        1.29e+25
Mrp:        -8.45e+24
Mtp:        -4.43e+24
PDEW 2008  1  6  5 14 23.70  37.2200   22.6900  75.0 6.1 6.2 SOUTHERN GREECE
event name:      cmt8
time shift:      0.2
half duration:   1.0
latitude:        23.5225
longitude:       45.5032
depth:           2881.0
Mrr:        7.74e+24
Mtt:        -1.83e+25
Mpp:        1.06e+25
Mrt:        1.29e+25
Mrp:        -8.45e+24
Mtp:        -4.43e+24
PDEW 2008  1  6  5 14 23.70  37.2200   22.6900  75.0 6.1 6.2 SOUTHERN GREECE
event name:      cmt9
time shift:      0.0
half duration:   1.0
latitude:        59.6491
longitude:       9.5982
depth:           10.0
Mrr:        7.74e+24
Mtt:        -1.83e+25
Mpp:        1.06e+25
Mrt:        1.29e+25
Mrp:        -8.45e+24
Mtp:        -4.43e+24
PDEW 2008  1  6  5 14 23.70  37.2200   22.6900  75.0 6.1 6.2 SOUTHERN GREECE
event name:      cmt10
time shift:      0.2
half duration:   1.0
latitude:        59.6491
longitude:       9.5982
depth:           2881.0
Mrr:        7.74e+24
Mtt:        -1.83e+25
Mpp:        1.06e+25
Mrt:        1.29e+25
Mrp:        -8.45e+24
Mtp:        -4.43e+24
PDEW 2008  1  6  5 14 23.70  37.2200   22.6900  75.0 6.1 6.2 SOUTHERN GREECE
event name:      cmt11
time shift:      0.0
half duration:   1.0
latitude:        -4.6737
longitude:       55.4792
depth:           10.0
Mrr:        7.74e+24
Mtt:        -1.83e+25
Mpp:        1.06e+25
Mrt:        1.29e+25
Mrp:        -8.45e+24
Mtp:        -4.43e+24
PDEW 2008  1  6  5 14 23.70  37.2200   22.6900  75.0 6.1 6.2 SOUTHERN GREECE
event name:      cmt12
time shift:      0.2
half duration:   1.0
latitude:        -4.6737
longitude:       55.4792
depth:           2881.0
Mrr:        7.74e+24
Mtt:        -1.83e+25
Mpp:        1.06e+25
Mrt:        1.29e+25
Mrp:        -8.45e+24
Mtp:        -4.43e+24
PDEW 2008  1  6  5 14 23.70  37.2200   22.6900  75.0 6.1 6.2 SOUTHERN GREECE
event name:      cmt13
time shift:      0.0
half duration:   1.0
latitude:        -5.0142
longitude:       119.7517
depth:           10.0
Mrr:        7.74e+24
Mtt:        -1.83e+25
Mpp:        1.06e+25
Mrt:        1.29e+25
Mrp:        -8.45e+24
Mtp:        -4.43e+24
PDEW 2008  1  6  5 14 23.70  37.2200   22.6900  75.0 6.1 6.2 SOUTHERN GREECE
event name:      cmt14
time shift:      0.2
half duration:   1.0
latitude:        -5.0142
longitude:       119.7517
depth:           2881.0
Mrr:        7.74e+24
Mtt:        -1.83e+25
Mpp:        1.06e+25
Mrt:        1.29e+25
Mrp:        -8.45e+24
Mtp:        -4.43e+24
PDEW 2008  1  6  5 14 23.70  37.2200   22.6900  75.0 6.1 6.2 SOUTHERN GREECE
event name:      cmt15
time shift:      0.0
half duration:   1.0
latitude:        -1.6557
longitude:       13.6116
depth:           10.0
Mrr:        7.74e+24
Mtt:        -1.83e+25
Mpp:        1.06e+25
Mrt:        1.29e+25
Mrp:        -8.45e+24
Mtp:        -4.43e+24
PDEW 2008  1  6  5 14 23.70  37.2200   22.6900  75.0 6.1 6.2 SOUTHERN GREECE
event name:      cmt16
time shift:      0.2
half duration:   1.0
latitude:        -1.6557
longitude:       13.6116
depth:           2881.0
Mrr:        7.74e+24
Mtt:        -1.83e+25
Mpp:        1.06e+25
Mrt:        1.29e+25
Mrp:        -8.45e+24
Mtp:        -4.43e+24
PDEW 2008  1  6  5 14 23.70  37.2200   22.6900  75.0 6.1 6.2 SOUTHERN GREECE
event name:      cmt17
time shift:      0.0
half duration:   1.0
latitude:        -20.0882
longitude:       146.2545
depth:           10.0
Mrr:        7.74e+24
Mtt:        -1.83e+25
Mpp:        1.06e+25
Mrt:        1.29e+25
Mrp:        -8.45e+24
Mtp:        -4.43e+24
PDEW 2008  1  6  5 14 23.70  37.2200   22.6900  75.0 6.1 6.2 SOUTHERN GREECE
event name:      cmt18
time shift:      0.2
half duration:   1.0
latitude:        -20.0882
longitude:       146.2545
depth:           2881.0
Mrr:        7.74e+24
Mtt:        -1.83e+25
Mpp:        1.06e+25
Mrt:        1.29e+25
Mrp:        -8.45e+24
Mtp:        -4.43e+24
PDEW 2008  1  6  5 14 23.70  37.2200   22.6900  75.0 6.1 6.2 SOUTHERN GREECE
event name:      cmt19
time shift:      0.0
half duration:   1.0
latitude:        18.1091
longitude:       -66.15
depth:           10.0
Mrr:        7.74e+24
Mtt:        -1.83e+25
Mpp:        1.06e+25
Mrt:        1.29e+25
Mrp:        -8.45e+24
Mtp:        -4.43e+24
PDEW 2008  1  6  5 14 23.70  37.2200   22.6900  75.0 6.1 6.2 SOUTHERN GREECE
event name:      cmt20
time shift:      0.2
half duration:   1.0
latitude:        18.1091
longitude:       -66.15
depth:           2881.0
Mrr:        7.74e+24
Mtt:        -1.83e+25
Mpp:        1.06e+25
Mrt:        1.29e+25
Mrp:        -8.45e+24
Mtp:        -4.43e+24
PDEW 2008  1  6  5 14 23.70  37.2200   22.6900  75.0 6.1 6.2 SOUTHERN GREECE
event name:      cmt21
time shift:      0.0
half duration:   1.0
latitude:        -21.2125
longitude:       -159.7733
depth:           10.0
Mrr:        7.74e+24
Mtt:        -1.83e+25
Mpp:        1.06e+25
Mrt:        1.29e+25
Mrp:        -8.45e+24
Mtp:        -4.43e+24
PDEW 2008  1  6  5 14 23.70  37.2200   22.6900  75.0 6.1 6.2 SOUTHERN GREECE
event name:      cmt22
time shift:      0.2
half duration:   1.0
latitude:        -21.2125
longitude:       -159.7733
depth:           2881.0
Mrr:        7.74e+24
Mtt:        -1.83e+25
Mpp:        1.06e+25
Mrt:        1.29e+25
Mrp:        -8.45e+24
Mtp:        -4.43e+24
PDEW 2008  1  6  5 14 23.70  37.2200   22.6900  75.0 6.1 6.2 SOUTHERN GREECE
event name:      cmt23
time shift:      0.0
half duration:   1.0
latitude:        -27.1267
longitude:       -109.3344
depth:           10.0
Mrr:        7.74e+24
Mtt:        -1.83e+25
Mpp:        1.06e+25
Mrt:        1.29e+25
Mrp:        -8.45e+24
Mtp:        -4.43e+24
PDEW 2008  1  6  5 14 23.70  37.2200   22.6900  75.0 6.1 6.2 SOUTHERN GREECE
event name:      cmt24
time shift:      0.2
half duration:   1.0
latitude:        -27.1267
longitude:       -109.3344
depth:           2881.0
Mrr:        7.74e+24
Mtt:        -1.83e+25
Mpp:        1.06e+25
Mrt:        1.29e+25
Mrp:        -8.45e+24
Mtp:        -4.43e+24
