
# forward or adjoint simulation
SIMULATION_TYPE                 = 1 
SAVE_FORWARD                    = .false.  # save last frame of forward simulation or not

# number of chunks (1,2,3 or 6)
NCHUNKS                         = 6

# angular width of the first chunk (not used if full sphere with six chunks)
ANGULAR_WIDTH_XI_IN_DEGREES   = 90.d0      # angular size of a chunk
ANGULAR_WIDTH_ETA_IN_DEGREES  = 90.d0
CENTER_LATITUDE_IN_DEGREES    = 40.d0
CENTER_LONGITUDE_IN_DEGREES   = 10.d0
GAMMA_ROTATION_AZIMUTH        = 20.d0

# number of elements at the surface along the two sides of the first chunk
# (must be 16 * multiple of NPROC below)
NEX_XI                          = 160  
NEX_ETA                         = 160 

# number of MPI processors along the two sides of the first chunk
NPROC_XI                        = 5
NPROC_ETA                       = 5

# 1D models with real structure:
# 1D_isotropic_prem, 1D_transversely_isotropic_prem, 1D_iasp91, 1D_1066a, 1D_ak135, 1D_ref
#
# 1D models with only one fictitious averaged crustal layer:
# 1D_isotropic_prem_onecrust, 1D_transversely_isotropic_prem_onecrust, 1D_iasp91_onecrust, 1D_1066a_onecrust, 1D_ak135_onecrust
#
# fully 3D models:
# transversely_isotropic_prem_plus_3D_crust_2.0, 3D_anisotropic, 3D_attenuation,
# s20rts, s362ani, s362wmani, s362ani_prem, s29ea
MODEL                           = s20rts

# parameters describing the Earth model
OCEANS                          = .true.
ELLIPTICITY                     = .true.
TOPOGRAPHY                      = .true.
GRAVITY                         = .true.
ROTATION                        = .true.
ATTENUATION                     = .true.

# absorbing boundary conditions for a regional simulation
ABSORBING_CONDITIONS            = .false.

# record length in minutes
RECORD_LENGTH_IN_MINUTES        =  0.5d0

# save AVS or OpenDX movies
MOVIE_SURFACE                   = .false.
MOVIE_VOLUME                    = .false.
NTSTEP_BETWEEN_FRAMES           = 100
HDUR_MOVIE                      = 0.d0

# save mesh files to check the mesh
SAVE_MESH_FILES                 = .false.

# restart files (number of runs can be 1, 2 or 3, choose 1 for no restart files)
NUMBER_OF_RUNS                  = 1
NUMBER_OF_THIS_RUN              = 1

# path to store the local database files on each node
LOCAL_PATH                      = /scratch/jtromp/DATABASES_MPI

# interval at which we output time step info and max of norm of displacement
NTSTEP_BETWEEN_OUTPUT_INFO      = 100

# interval in time steps for temporary writing of seismograms
NTSTEP_BETWEEN_OUTPUT_SEISMOS   = 5000000
NTSTEP_BETWEEN_READ_ADJSRC      = 1000

# output format for the seismograms (one can use either or all of the three formats)
OUTPUT_SEISMOS_ASCII_TEXT       = .true.
OUTPUT_SEISMOS_SAC_ALPHANUM     = .false.
OUTPUT_SEISMOS_SAC_BINARY       = .false.

# rotate seismograms to Radial-Transverse-Z or use default North-East-Z reference frame
ROTATE_SEISMOGRAMS_RT           = .false.

# flag to impose receivers at the surface or allow them to be buried
RECEIVERS_CAN_BE_BURIED         = .false.

# print source time function
PRINT_SOURCE_TIME_FUNCTION      = .false.

