
To-do list for SPECFEM3D_GLOBE, by Dimitri Komatitsch and David Michea
----------------------------------------------------------------------

David:
-----

- Hi Dimitri & David: After we fix the bug associated with the oceans, we should reexamine the size of the time step, because I suspect it will be too small. Jeroen 

- va etre fait par Qinya : I noticed a problem in Qinya's adjoint code and the
  conversion to static memory below: arrays eps_trace_over_3_crust_mantle and eps_trace_over_3_inner_core are not needed when we use attenuation only for a forward simulation, they are only needed to save the strain in the whole mesh (when we attenuation for a forward run this calculation of eps_trace_over_3, i.e. the trace of the strain tensor, is purely local and can be stored in a scalar, not need to waste an array for it. I have therefore added two new static constants
 integer, parameter :: NSPEC_CRUST_MANTLE_STRAIN_ONLY =
 integer, parameter :: NSPEC_INNER_CORE_STRAIN_ONLY =
in values_from_mesher.h, used for these two arrays only. Qinya, by the way I think that you could probably get rid of these two arrays and the two new static constants above permanently in the whole package, to avoid wasting memory: since we already store the whole deviatoric strain in epsilondev(:,:,:,:,:) you should probably recompute its trace locally every time you need it instead of storing it in additional arrays. This way you would save four arrays:  eps_trace_over_3_crust_mantle, eps_trace_over_3_inner_core, b_eps_trace_over_3_crust_mantle, b_eps_trace_over_3_inner_core (unless there is a hidden problem I have not seen).

- a voir avec Qinya, Ying Zhou et Anne Sieminski : I noticed that model 1066a blows up at least with the parameters below. I have no time to check, David can have a look when he comes back (I have added this to the to-do list) but has anyone ever run that model successfully with either v3.5, v3.6 or v4.0? (I had never tried before; considering that the same Par_file runs fine with ak135 or PREM, it could either be that routine model_1066a.f90 has a bug, or that the time step computed by David based upon trial and error using runs with PREM is a bit too large for 1066a if 1066a has a thinner layer somewhere i.e. smaller mesh cells that could be above the PREM stability limit.
NEX_XI                          = 96
NEX_ETA                         = 96
# number of MPI processors along the two sides of the first chunk
NPROC_XI                        = 3
NPROC_ETA                       = 3
MODEL                           = 1D_1066a
# parameters describing the Earth model
OCEANS                          = .false.
ELLIPTICITY                     = .false.
TOPOGRAPHY                      = .false.
GRAVITY                         = .false.
ROTATION                        = .false.
ATTENUATION                     = .false.
Hi Ying, Yes, absolutely, thanks for pointing this out. This must be the problem (because in the mean time I have checked file model_1066a.f90 and compared it to model_ak135.f90 and did not notice any problem). So I guess when David comes back he can create a particular set of smaller (and therefore more expensive) values of DT in the case of 1066a. Let me add this to the todo list. Thanks for finding the problem! Dimitri.
Ying Zhou wrote:
> Hi Dimitri,
>   1066A has 11 km crust, could that be a problem?
> Ying
Other email from Jeroen:
Hi Dimitri & David:
Perhaps for 1066a, since it has just an 11 km crust, we can always use the
1crust approach?
Jeroen

- rendre plus claire la partie du code qui définit ONE_CRUST, HONOR_1D_SPHERICAL_MOHO and CASE_3D dans read_compute_parameters.f90, suite aux remarques de Bernhard Schubert (partly done by Dimitri this summer, but David can clean it even more in September)

- bug movies detecte par Vala: code crashes (probably in compute_forces) when setting MOVIE_VOLUME = .true.  > Stack trace terminated abnormally.  > forrtl: severe (174): SIGSEGV, segmentation fault occurred

- ecrire les sismogrammes (et les allouer en memoire) bout a bout les uns a la suite des autres par tranches de taille NTSTEP_BETWEEN_FRAMES (ou bien un parametre de ce genre, a ajouter dans le Par_file) pour economiser (beaucoup de) memoire pour les runs avec beaucoup de stations sur un tres grand nombre de pas de temps.
Salut David, Nicolas a implémenté dans le code 2D les sismos stockés et écrits bloc par bloc, tu peux faire svn update dans le code 2D et récupérer SEM_2D_Dimitri/write_seismograms.F90 et SEM_2D_Dimitri/specfem2D.F90 et programmer la même chose à 3D ok ? (plutôt dans v4.1 après les USA pour ne pas prendre de risque de dernière minute ? à toi de voir) a+ Dimitri 

- Split central cube in 2 with MPI to have better load balancing there and remove bottleneck detected by ORNL in the MPI implementation of the central cube (many slices send to one processor, which creates a big bottleneck). To do this, see the old (unfinished) implementation done by Dimitri in version 3.6 on pangu in directories /home/komatits/bubu_test_central_cube_AB_antipode_54procs and /home/komatits/ok_chunk_AB_central_cube

- couper la superbrick en deux au milieu dans les deux directions par MPI pour repasser de blocs de taille 32 à des blocs de taille 16; sinon voir les conséquences des blocs de 32: en coupant au milieu des superbricks, clarifier ce qui se passe : on doit toujours prendre des multiples de 32, mais on peut les couper deux fois plus; voir si la Table 3.1 du manuel est toujours valable, ou bien sinon comment il faut la modifier

- create the mesh from bottom layer to top layer (it is created the other way around right now): this will be better for Cuthill-McKee, for graphics etc; DK DK: already done by David in Barcelona 2007 I think

- get rid of the bottleneck in locate_sources and locate_receivers
when one uses a huge number of sources (e.g. Vala -> 100000 sources)
or a very large number of stations (e.g. Bernhard -> 20000 stations):
in such a case there is a bunch of MPI_GATHERS which waste a lot
of memory and can even use all the available memory and make the run crash.
Vala partially fixed this problem by using subsets of 1000 stations, but after
careful analysis we have found a way of doing better and getting rid of all
the GATHERs and *all* the extra memory (this way we won't have to limit the number of sources to a maximum of 100000, as currently done in the solver).

- compiler l'ensemble du code sous gfortran, pgf90 (par ex sur ipigps014), Intel ifort (par ex sur pangu), IBM xlf à l'Idris afin de vérifier avant la conference aux USA mi-octobre que le code final ne donne aucun warning avec ces quatre compilos classiques, ce qui permet de vérifier la portabilité

- (a faire par David en liaison avec Brian Savage): utiliser routines auto_ner de Brian Savage pour calculer MIN_ATTENUATION et MAX_ATTENUATION au lieu de mettre des constantes arbitraires comme actuellement: utiliser get_attenuation_model de Brian Savage pour determiner les constantes d'attenuation pour les chunks complets et non pas seulement si différent de 90 degrés. Pour cela, supprimer mes vieilles variables MIN_ATTENUATION et MAX_ATTENUATION_PERIOD Re: mesh_radial 22/05/2007 00:21 Dimitri, Sure.  I will commit those changes when I get the R_CENTRAL_CUBE section working.  The calculation of MIN_ATTENUATION_PERIOD is CHUNK_WIDTH = <user defined> [ deg ] NEX_MAX           = <user defined> [ elements ] KM_PER_DEGREE = 111.11 [ km / deg ] POINTS_PER_WAVELENGTH = 4 GLL_POINT_SPACING = 4 MIN_VELOCITY = 2.25 [ km / sec ] S wave veloicty CHUNK_WIDTH_KM    = CHUNK_WIDTH * KM_PER_DEGREE POINT_SPACING_KM = CHUNK_WIDTH_KM / ( NEX_MAX * GLL_POINT_SPACING ) MIN_PERIOD               = (POINT_SPACING_KM * POINTS_PER_WAVELENGTH) / MIN_VELOCITY MAX_ATTENUATION_PERIOD depends on MIN_ and the number of N_SLS.  The dependence on N_SLS will also be included in the code Brian On May 21, 2007, at 5:11 PM, Dimitri Komatitsch wrote: > Brian, > This is perfect! Thank you very much.  > One important thing: could you call your routine to compute > MIN_ATTENUATION_PERIOD and MAX_ATTENUATION_PERIOD in all cases > (even for 90 degrees and even for classical NEX such as 160, 320 etc)?  > Because the current values are completely obsolete (I computed > them in 2000 by trial and error, I don't even remember how...  > calling your clean routine would be *much* better); > please don't hesitate to do it and commit the changes.  > Thanks!  > Cheers, > Dimitri.
Modifier le calcul des bornes de l'attenuation: car
    MIN_ATTENUATION_PERIOD   = 20
    MAX_ATTENUATION_PERIOD   = 1000
est arbitraire dans read_compute_parameters.f90 actuellement, utiliser la routine plus generale de Brian Savage. Dire a Brian Savage (Washington D.C.) de faire un get_attenuation_model a partir de PREM (choix automatique des parametres) a partir de display_prem_sampling_doubling.f90 dans DATA/util/mesh_doubling_superbrick
Subject: Re: attenuation (other idea)
From: Dimitri Komatitsch <dimitri.komatitsch@univ-pau.fr>
Date: Sun, 21 Jan 2007 21:59:54 +0100
To: Brian Savage <savage@uri.edu>
CC: Jeroen Tromp <jtromp@gps.caltech.edu>, Qinya Liu <lqy@gps.caltech.edu>, Vala
Hjorleifsdottir <vala@gps.caltech.edu>, Ying Zhou <yingz@gps.caltech.edu>,
David Michéa <davidmichea@gmail.com>
Dear all,
Following Brian's tests described in his email below,
I think we should change the way we set the width of the
absorption band in read_parameters.f90. In the current implementation
we impose an arbitrary range, e.g. for NEX=160 we set:
    MIN_ATTENUATION_PERIOD   = 20
    MAX_ATTENUATION_PERIOD   = 1000
but of course we should replace this with some kind of automatic
range selection process based on the value of N_SLS (3, 4 or 5)
and on mesh resolution I guess.
Brian, if you have a way of adding this to the general 3D attenuation
routine you wrote, please do not hesitate to implement it
and get rid of the current arbitrary ranges... I think having
a flexible routine to do this would be very useful.
Dimitri.
Brian Savage wrote:
> Dear All,
> I will run some tests to determine the maximum width of the absorption band
> with 3,4 and 5 linear solids.  As I recall, the optimum for 3 was 1.75
> decades in the frequency domain.
> By the way, I think I have tracked down the differences between 3.5 and 3.6.
> I believe it has to do with how the sharp attenuation boundaries are
> represented.  More testing still to be done.
> Cheers,
> Brian
> On Jan 1, 2007, at 8:02 PM, Jeroen Tromp wrote:
>> Hi Dimitri:
>> I think this at least worth investigating, i.e., how much more memory does
>> it take, how much flatter is the Q, how much broader is the absorption
>> band, etc.
>> But we still need to fix the existing bug first....
>> Jeroen
>>> Dear all,
>>> By the way, talking about attenuation, now that memory is becoming less
>>> of an issue it could be clever to switch from 3 memory variables to 4
>>> (N_SLS = 4) in the global code at some point in the (near?) future. (in
>>> particular to make attenuation more precise for the dispersion of
>>> surface waves).
>>> Do you think this could be a good idea?
>>> Dimitri.
Brian, ok, perfect, thank you. I will modify the code accordingly,
to call your routine to define the attenuation parameters
automatically even in the case of the full Earth.
Cheers,
Dimitri.
Brian Savage wrote:
> Dimitri,
> short answer: yes
> long answer:
> The lines you are describing MIN_ATT and MAX_ATT are defined for specific
> number of elements NEX_MAX and assuming a 90 degree chunk.  You may suppress
> them if you wish, but you would need to remove the if(ANGULAR_WIDTH_ ...)
> line to make certain these numbers get set.
> Look at line numbers 333-369 or so in read_parameter_file.f90.  The equation
> for min and max attenuation period is in there along with the DT and radial
> distribution of elements.
> I would also suggest testing the code a bit more than I have to be certain
> that the values it returns are similar to the ones you wrote in a few years
> ago.  I think running xcreate_header_file is sufficient to do this.  The
> equations are a bit of a mess, especially the one determining the time
> stepping.  There are some hard coded numbers in there too, which could
> probably be cleaned up a bit.
> I hope that made sense.
> Cheers,
> Brian
> On Jan 26, 2007, at 11:20 AM, Dimitri Komatitsch wrote:
>> Dear Brian,
>> One quick question: do you still use
>> MIN_ATTENUATION_PERIOD   = 20
>> MAX_ATTENUATION_PERIOD   = 1000
>> that are set in read_parameters.f90, or can I suppress them?
>> If you still use them, could you write a routine to set them
>> to the right frequency band automatically? (the current implementation,
>> i.e. setting them to arbitrary values without adding a comment
>> or using a formula is not very easy to maintain: I remember writing these
>> lines a few years ago but I don't remember how I got the numerical
>> values!
>> Thank you,
>> Dimitri.
>>

- merge the mesher in the solver, suppress storage of large mesh files on local disks, but make sure we keep the creation of AVS/OpenDX mesh files (which should be the case since we use specific routines called write_AVS_DX_*.f90) 30/06/2007 18:19 Hi Jeroen, Leif and David, I thought about merging the mesher and the solver, there might be a hidden difficulty because of memory allocation: the solver allocates almost all the available memory on a given CPU in static arrays, and the solver allocates a similar amount dynamically with allocate() statements. Therefore combining them would roughly double the required amount of memory and will not fit because the Par_file is tuned in order for the solver to use almost all the available memory on each CPU (in the case of large runs).  On systems (such as Linux) with a "first touch" memory allocation policy things should be ok because (if I understand correctly, but I am not sure) the system will not physically allocate the static memory for the solver until it is actually called, i.e. once the mesher has finished, even if both are combined in the same program.  But on other systems I guess we could have problems and the run would not start and exit with an "out of memory" error?  I don't know how to solve this problem. (*if* it needs to be solved; if *all* modern systems use a first touch policy, then we are all set; please let me know; I don't know much about operating systems). Leif, would you have any idea about how to handle this?  If the problem turns out to be too complex, I suggest *not* doing it in v4.0 and waiting until we start working on v4.1 after the October 9-11 workshop. Dimitri.
Hi Jeroen,
I would say 20%, which is probably not much and as you say it is
probably the price to pay to run on a diskless machine.
The question is: do we keep and maintain two versions (a merged version
and also two separate codes)? I think what we should do it keep two
codes and ask David to write a third (very small) code (an interface)
which would call the mesher and the solver as subroutines and use memory
instead of the disk to copy the output information of the mesher
to the input of the solver. The mesher could still use dynamic
allocation, the solver would remain static, and on any machine
with a "first touch" policy in the operating system we would be all set.
This way the code would still be portable, could run on any
system (even systems without "first touch", using two codes
and the local disks). The only type of system such a code
could not run on would be a machine with no local disks
*and* no first touch policy. But such a machine is very
unlikely to exist (most modern operating systems
allocate static memory when it starts to be used
because there is no reason to do otherwise, because
this would mean locking resources for no reason;
therefore we can safely assume that "first touch"
will become standard in the future; it is already almost standard.
Dimitri.
Jeroen Tromp wrote:
> Hi Dimitri:
> But perhaps the hit in extra memory should simply be regarded as the
> extra cost of doing business on a petascale machine. What is the
> percentage increase in memory that would result from the merge?
> Jeroen
> Dimitri Komatitsch wrote:
>> Hi Jeroen,
>> Yes, but there is a hidden problem: the current mesher needs four more
>> (big) arrays than the solver. I can reduce this to two maybe using
>> some clever "equivalence" statements, but not to zero; i.e.
>> if we merge the solver and the mesher and use static memory for both
>> we will create a merged version in which the mesher will control
>> memory size again, not the solver (as in v3.6).
>> I have solved this problem in version 4.0 by using dynamic memory
>> allocation cleverly in the mesher: I call create_region_mesh twice and
>> create half the (dynamic) arrays each time, therefore
>> I need only half the memory in each call, and this is always
>> below the memory size of all the static arrays in the solver,
>> i.e. we are back to the normal situation in which it is the solver
>> that controls memory size. But we would lose this if we merged
>> the codes because my trick would not work anymore...
>> (because I would not be able to deallocate the memory dynamically
>> after the first call)
>> Of course, we know that Linux does not allocate static arrays
>> until they are actually used, which means that on all Linux
>> machines we could merge the current v4.0 codes without
>> any modification, keeping the mesher dynamic, letting it finish,
>> and then Linux would create the static arrays of the solver
>> only when the solver actually starts and all the arrays used
>> by the mesher have been deallocated.
>> Therefore the question is: will we ever run the merged code
>> on a supercomputer that will not run Linux (or any other
>> system with a similar "first touch" policy). Difficult to know
>> in advance...
>> Dimitri.
>> Jeroen Tromp wrote:
>>> Hi Dimitri:
>>> Your ideas for reducing the memory requirements of the mesher made me
>>> think about the problems related to merging the mesher and solver.
>>> Can you see a way of have a small serial code, like
>>> create_header_file.f90, that one would run *before* you run either
>>> the mesher or the solver, that determines the correct array
>>> dimensions from the Par_file settings. This code is then used to
>>> produce the right header file for the combined static mesher-solver.
>>> The read_arrays_solver call in the solver is turned into a call to
>>> the mesher, which effectively becomes a subroutine.
>>> Jeroen

- peut-etre supprimer write_AVS_mesh_quality, check_buffers*.f90, check_mesh_quality*.f90 etc du serveur SVN (svn remove) une fois que le mesher et le solver auront été fusionnés; sauf si on decide de garder deux versions du code: une fusionnee et une non fusionnee qui utiliserait toujours le stockage sur des disques locaux. Les enlever du Makefile.in aussi. Do not store x y z in the files that contain the MPI buffers anymore, since they are used only by check_buffers*. (in the solver they are read back as xdummy, ydummy, zdummy); eventuellement supprimer aussi le fichier ecrit par le mailleur sur le disque et relu plus tard par ce meme mailleur, s'il n'est pas utilise par le solver (c'est a dire s'il est utilise seulement par les codes serial check*.f90, qui sont amenes a disparaitre)

---------------------------------------------------------------------------------
---------------------------------------------------------------------------------
---------------------------------------------------------------------------------
---------------------------------------------------------------------------------

Things to do later:
-------------------

- afficher le modele PREM,les courbes de nombre de points par longueur d'onde et de stabilité et les worst elements (stability et nb pts per lambda) en OpenDX en serial sur le maître dans le nouveau mesher, en copiant/collant ce qu'il faut depuis display_prem_sampling_doubling.f90 sur le master seulement (rank == 0)

- Re: revision of shortest period estimates?  08/05/2007 14:51 Hi Jeroen, Yes, we need to check that. The code in UTILS/doubling_brick automatically computes the minimum period for 4 points per wavelength for each classical NEX, therefore we can just cut and paste the result in the manual. If we want 5 points per wavelength we can multiply the periods by 5/4. However we need to doublecheck because I don't remember if my code uses 4 points or 4 intervals (i.e. 5 points), therefore the current values are maybe already fine (if I used 4 intervals). I will doublecheck.  In any case, the sampling curves I sent you for v3.6 and v4.0 are valid anyway (they are computed using non-dimensional values, and then multiplied by 4, and would therefore be identical if I decided to multiply by 5 instead).  Dimitri.  Jeroen Tromp wrote: > Hi Dimitri: > If we are shooting for a minimum of 5 grid points per shortest wavelength, > perhaps we should increase our estimate of an accuracy at periods of 18 s > and longer for an NEX=240 run by 20% to 22 s? And perhaps NEX=320 is > accurate down to periods of 15 s rather than 12 s?

---------------------------------------------------------------------------------
---------------------------------------------------------------------------------
---------------------------------------------------------------------------------
---------------------------------------------------------------------------------

Things to add to the manual:
----------------------------

- ajouter les courbes de dispersion et stabilité au manuel pour tous les NEX classiques (160, 256, 380 etc) dans un Appendix spécial là-dessus; dire dans cet appendix que dans le outer core ce n'est bien sûr par Vs qui est représenté mais Vp / 1.25 (on a pris 25 % de marge car on travaille en velocity potential dans le outer core, ce qui demande un échantillonnage un peu meilleur)

- supprimer write_AVS_mesh_quality, check_buffers*.f90, check_mesh_quality*.f90 etc du manuel une fois que le mesher et le solver auront été fusionnés (enlever les deux sections expliquant l'utilisation de ces routines)

---------------------------------------------------------------------------------
---------------------------------------------------------------------------------
---------------------------------------------------------------------------------
---------------------------------------------------------------------------------

DONE:
-----

- see if this would be useful (probably NOT, according to the ParaVer analysis done in Barcelona): rewrite communications entirely (use clean non-blocking MPI communications, use persistent communications, hide communications in calculations); see how to do this in the central cube, which is more difficult because it is in contact with many slices (see routine create_central_cube_buffers.f90). Do this using the code developed by Nicolas Le Goff for SPECFEM3D_BASIN with Céline. => not done because we would not gain anything from using non blocking communications

- flag SUPPRESS_CRUSTAL_MESH does not work on the current version that is on the SVN server: it exits with an error message 'ispec greater than nspec in mesh creation' in the mesher: this bug should be fixed. en particulier je crois que ca est faux dans create_regions_mesh.f90
 elseif (SUPPRESS_CRUSTAL_MESH .and. iz_elem == ner(ilayer) .and. ilayer == ifirst_region+1) then
il faudrait le coder plutot directement avec des regions ayant ner(i) = 0 et en commencant directement par doubling_factor(i) = 2 a la surface au lieu de 1, comme moi dans le code acoustique PKP 3D.

- le flag pour le multilevel Cuthill-McKee qui est dans constants.h.in
n'est jamais utilisé (un grep ne le montre dans aucun fichier Fortran90),
il semble donc que soit on ne fait jamais de multilevel
cuthill soit on le fait toujours (et alors on ne fait jamais le cuthill
simple niveau cuthill). Il faudra corriger cela pour faire l'un ou l'autre
suivant la valeur de ce flag
dkomati1-ipigps014: grep -i MULTI_LEVEL_CUTHILL *.h* *90
constants.h.in:  logical, parameter :: MULTI_LEVEL_CUTHILL = .true.
==> ok, rajouté dans get_perm_cuthill_mckee.f90. A revoir lors de l'implémentation des courbes de peano.

- dans le cas où NCHUNKS = 1, le solveur se plante car il cherche a lire
des fichiers plus gros que ceux sauvés par le mailleur. Apparemment
ca doit etre des tableaux pour les conditions absorbantes de Stacey ou
quelque chose comme ça qui est spécifique à NCHUNKS < 6 qui ne doit
pas etre sauvé à la meme taille que la taille lorsqu'on le relit,
car quand on a 6 chunks tout marche très bien.
dkomati1-ipigps014: mpirun -np 9 ./xspecfem3D
PGFIO-F-219/unformatted read/unit=40/attempt to read/write past end of record.
 File name = DATABASES_MPI/proc000003_reg1_solver_data_1.bin    unformatted,
sequential access   record = 16
 In source file read_arrays_solver.f90, at line number 170
==> mauvaise condition pour la création des tableaux rho_vp et rho_vs dans
save_arrays_solver.f90 pour NCHUNK=1 : ils étaient créés, mais pas relu => pas de problèmes quant les
tableaux étaient dumpés dans des fichiers séparés (ils n'étaient pas relus),
mais problème avec l'aggrégation des tableaux dans un seul fichier .bin. résolu en changeant la condition.


- run Sdiff calculations for Lev Vinnik (Moscow, Russia): done by Dimitri in Barcelona

- run 3D PKP calculations for Sebastien Chevrot (Toulouse, France): done by Dimitri in Barcelona

- bug estimation mémoire NEX=1248 (marche) à NEX=1664 (plante) à résoudre: passer tout en double precision ou bien integer(kind=8): done by Dimitri

- fusionner en une seule étape le assemble_MPI de inner core et de crust_mantle merge assemble_MPI_vector for crust/mantle with assemble_MPI_vector for inner core in order to divide the number of MPI calls by 2 for the solid regions; car dans specfem3D.f90 ci-dessous à un moment on appelle deux fois la routine d'assemblage MPI, une fois pour assembler le crust + mantle et une fois pour assembler le inner core, juste après, ce qui double le nombre de messages et la latence pour rien. Donc quand on réécrira le MPI du solver bien entendu il faudra penser à fusionner les deux en un seul envoi de messages contenant crust + mantle + inner core: done by Dimitri

- enlever blocs AB, AC et BC partout, puisque tous les blocs sont maintenant de même type (*mais* il faudra quand même laisser les six noms : CHUNK_AB, CHUNK_AC, CHUNK_AB_ANTIPODE etc et garder les tests de type if(ichunk == CHUNK_AB_ANTIPODE) then partout où il y en a, car on continue à traiter 6 blocs, même s'ils ont maintenant la même topologie. Il faut donc conserver tout ce qui concerne ces six noms de blocs -> {ok pour le mailleur, reste la différentiation dans le solveur, mais sans conséquences. A mettre à plat lors de la fusion. DM.}

- enlever les "modules" et "use" partout où il y en a (pour anisotropie etc) car ce n'est pas "thread safe" et donc ça se plantera si on utilise MPC au lieu de MPI. Remplacer par la transmission explicite des paramètres aux subroutines. Peut-être dire dans le manuel utilisateur qu'il ne faut pas utiliser de modules pour cette raison ? -> {OK. DM.}

- modifier RMOHO_FICTITIOUS_IN_MESHER = R80 + (R_EARTH - R80) * dble(NER_80_MOHO) / dble(NER_80_MOHO + NER_CRUST) dans display_prem_sampling_doubling.f90 et dans le nouveau code de maillage de David: done by David

- ajouter le nombre analytique de points de GLL (appelé NGLOB) dans le mailleur (dans le nouveau read_compute_parameters.f90) -> {OK. DM.}

- modifier_creation_central_cube_now_32_au_lieu_de_16 -> {ok, mais a revoir : 2**4=16. DM.}

- modifier_create_header_file pour s'assurer qu'il fonctionne avec le nouveau mailleur -> {OK reste à enlever les appels à exit_mpi. DM.}

- dans constants.h il y a un flag IFLAG_220_MOHO qu'il faudra séparer en deux en
créant IFLAG_220_80 et IFLAG_80_MOHO. Facile dans constants.h,
mais partout où apparaît ensuite IFLAG_220_MOHO par exemple
dans des if dans tous les *.f90 il faudra changer tous les
if(machintruc == IFLAG_220_MOHO) then
en
if(machintruc == IFLAG_220_80 .or. machintruc == IFLAG_80_MOHO) then
Faudra qu'on fasse ça à l'occasion ok ? par ex la semaine prochaine,
c'est rapide à faire.
(c'est Brian Savage, qui travaille sur l'atténuation dans le code,
qui a besoin de distinguer ces deux sub-flags) -> {OK, a revoir qd meme. DM.}

- modifier write_seismograms.f90 pour que tout soit écrit directement sur le home par le maître et non pas sur les disques locaux par chaque noeud. Pour cela faire des paires SEND/RECV en allouant dynamiquement un tableau de taille différente à chaque fois (de taille nrec_local, sauf si nrec_local = 0, dans ce cas on n'envoie/reçoit rien pour cette tranche qui ne contient pas de récepteur). A la fin on doit avoir exactement 3*765 = 2295 fichiers (765 stations dans DATA/STATIONS, chacune stockant les trois composantes du vecteur déplacement)

- remplacé :
 double precision :: Qs
par
 integer :: interval_Q
pour des soucis de lisibilité.

- utiliser netCDF pour stocker du binaire partout où c'est nécessaire. voir si ça vaut le coup de stocker les gros fichiers de topographie dans DATA/topo_bathy dans ce format ou non, afin de réduire leur taille; tester l'utilisation de netCDF et nous donner les routines pour lire/ecrire du binaire à ce format depuis SPECFEM3D_BASIN. David utilisera ensuite cela depuis SPECFEM3D_GLOBE  --> remarque de Dimitri ajoutée: probablement pas vraiment utile finalement, donc je supprime cette ligne des choses à faire

- carefully study and improve the stability condition and increase/adapt time step DT accordingly: done by David and Dimitri, by trial and error

- distinguer_DT_suivant_si_honor_PREM_or_not: done by David and Dimitri

- verifier / ameliorer HONOR_1D_SPHERICAL_MOHO: done by David and Dimitri

- implement better (partly inflated) central cube: done by David and Dimitri
