PDEW 2008  1  6  5 14 23.70  37.2200   22.6900  75.0 0.0 0.0 NOISE NO SOURCE
event name:       noise
time shift:      29.0000
half duration:   30.0000
latitude:        0.0
longitude:       0.0
depth:           0.0
Mrr:             0.0 
Mtt:             0.0
Mpp:             0.0
Mrt:             0.0
Mrp:             0.0
Mtp:             0.0
