 PDE 2011  3 11  5 46 23.00  38.3215  142.3693  24.4 8.8 8.8 P
event name:      174715B_166
time shift:       125.6000
half duration:     17.0000
latitude:          40.9385
longitude:        141.8865
depth:          55.4600
Mrr:         4.259000e+26
Mtt:        -1.209000e+26
Mpp:        -3.050000e+26
Mrt:         8.570000e+26
Mrp:         5.341000e+26
Mtp:        -2.665000e+26
 PDE 2011  3 11  5 46 23.00  38.3215  142.3693  24.4 8.8 8.8 P
event name:      174715B_167
time shift:       126.4000
half duration:     16.4000
latitude:          40.1020
longitude:        143.2068
depth:          19.2200
Mrr:         4.965000e+24
Mtt:        -1.109000e+24
Mpp:        -3.856000e+24
Mrt:         7.822000e+24
Mrp:         6.806000e+24
Mtp:        -2.586000e+24
 PDE 2011  3 11  5 46 23.00  38.3215  142.3693  24.4 8.8 8.8 P
event name:      174715B_168
time shift:       127.0000
half duration:     10.4000
latitude:          40.5427
longitude:        142.4398
depth:          39.9300
Mrr:         8.032000e+25
Mtt:        -1.581000e+25
Mpp:        -6.451000e+25
Mrt:         1.112000e+26
Mrp:         1.142000e+26
Mtp:        -3.814000e+25
 PDE 2011  3 11  5 46 23.00  38.3215  142.3693  24.4 8.8 8.8 P
event name:      174715B_169
time shift:       127.4000
half duration:     13.2000
latitude:          40.4078
longitude:        143.0820
depth:          24.4000
Mrr:         2.431000e+25
Mtt:        -2.714000e+24
Mpp:        -2.160000e+25
Mrt:         1.872000e+25
Mrp:         3.857000e+25
Mtp:        -7.957000e+24
 PDE 2011  3 11  5 46 23.00  38.3215  142.3693  24.4 8.8 8.8 P
event name:      174715B_170
time shift:       128.2000
half duration:     13.6000
latitude:          40.6778
longitude:        141.7977
depth:          55.4600
Mrr:         6.704000e+26
Mtt:        -1.142000e+26
Mpp:        -5.562000e+26
Mrt:         7.999000e+26
Mrp:         9.878000e+26
Mtp:        -2.876000e+26
 PDE 2011  3 11  5 46 23.00  38.3215  142.3693  24.4 8.8 8.8 P
event name:      174715B_171
time shift:       131.0000
half duration:     15.4000
latitude:          40.6236
longitude:        143.3851
depth:          19.2200
Mrr:         5.123000e+24
Mtt:        -1.351000e+23
Mpp:        -4.988000e+24
Mrt:         7.964000e+23
Mrp:         8.972000e+24
Mtp:        -9.203000e+23
 PDE 2011  3 11  5 46 23.00  38.3215  142.3693  24.4 8.8 8.8 P
event name:      174715B_172
time shift:       133.4000
half duration:     12.6000
latitude:          40.8935
longitude:        142.1006
depth:          50.2800
Mrr:         7.179000e+26
Mtt:        -1.651000e+26
Mpp:        -5.528000e+26
Mrt:         1.165000e+27
Mrp:         9.751000e+26
Mtp:        -3.821000e+26
