 PDE 2011  3 11  5 46 23.00  38.3215  142.3693  24.4 8.8 8.8 P
event name:      174715B_1
time shift:         0.0000
half duration:     12.6000
latitude:          38.3215
longitude:        142.3692
depth:          24.4000
Mrr:         2.810000e+27
Mtt:        -3.069000e+26
Mpp:        -2.503000e+27
Mrt:         2.115000e+27
Mrp:         4.472000e+27
Mtp:        -9.080000e+26
 PDE 2011  3 11  5 46 23.00  38.3215  142.3693  24.4 8.8 8.8 P
event name:      174715B_2
time shift:         9.0000
half duration:     13.0000
latitude:          38.3665
longitude:        142.1551
depth:          29.5800
Mrr:         2.349000e+27
Mtt:        -3.069000e+26
Mpp:        -2.042000e+27
Mrt:         2.131000e+27
Mrp:         3.640000e+27
Mtp:        -8.463000e+26
 PDE 2011  3 11  5 46 23.00  38.3215  142.3693  24.4 8.8 8.8 P
event name:      174715B_3
time shift:         9.8000
half duration:     14.4000
latitude:          38.0158
longitude:        142.4945
depth:          19.2200
Mrr:         1.959000e+27
Mtt:        -2.942000e+26
Mpp:        -1.665000e+27
Mrt:         2.053000e+27
Mrp:         2.963000e+27
Mtp:        -7.722000e+26
 PDE 2011  3 11  5 46 23.00  38.3215  142.3693  24.4 8.8 8.8 P
event name:      174715B_4
time shift:        11.6000
half duration:     15.2000
latitude:          38.5823
longitude:        142.4585
depth:          24.4000
Mrr:         2.933000e+27
Mtt:        -1.391000e+26
Mpp:        -2.794000e+27
Mrt:         9.010000e+26
Mrp:         5.018000e+27
Mtp:        -6.338000e+26
 PDE 2011  3 11  5 46 23.00  38.3215  142.3693  24.4 8.8 8.8 P
event name:      174715B_5
time shift:        17.6000
half duration:     12.6000
latitude:          38.6723
longitude:        142.0302
depth:          34.7500
Mrr:         2.805000e+27
Mtt:        -4.142000e+26
Mpp:        -2.391000e+27
Mrt:         2.889000e+27
Mrp:         4.256000e+27
Mtp:        -1.093000e+27
 PDE 2011  3 11  5 46 23.00  38.3215  142.3693  24.4 8.8 8.8 P
event name:      174715B_6
time shift:        17.6000
half duration:     13.0000
latitude:          38.2765
longitude:        142.5832
depth:          19.2200
Mrr:         2.273000e+27
Mtt:        -3.100000e+26
Mpp:        -1.963000e+27
Mrt:         2.156000e+27
Mrp:         3.498000e+27
Mtp:        -8.416000e+26
 PDE 2011  3 11  5 46 23.00  38.3215  142.3693  24.4 8.8 8.8 P
event name:      174715B_7
time shift:        20.0000
half duration:     12.0000
latitude:          38.4565
longitude:        141.7272
depth:          39.9300
Mrr:         2.257000e+27
Mtt:        -2.413000e+26
Mpp:        -2.015000e+27
Mrt:         1.661000e+27
Mrp:         3.601000e+27
Mtp:        -7.202000e+26
 PDE 2011  3 11  5 46 23.00  38.3215  142.3693  24.4 8.8 8.8 P
event name:      174715B_8
time shift:        22.0000
half duration:     13.4000
latitude:          38.4115
longitude:        141.9410
depth:          34.7500
Mrr:         2.399000e+27
Mtt:        -2.117000e+26
Mpp:        -2.187000e+27
Mrt:         1.443000e+27
Mrp:         3.915000e+27
Mtp:        -6.882000e+26
 PDE 2011  3 11  5 46 23.00  38.3215  142.3693  24.4 8.8 8.8 P
event name:      174715B_9
time shift:        22.6000
half duration:     13.6000
latitude:          38.1957
longitude:        141.6382
depth:          39.9300
Mrr:         1.934000e+27
Mtt:        -1.025000e+26
Mpp:        -1.832000e+27
Mrt:         6.720000e+26
Mrp:         3.289000e+27
Mtp:        -4.367000e+26
 PDE 2011  3 11  5 46 23.00  38.3215  142.3693  24.4 8.8 8.8 P
event name:      174715B_10
time shift:        26.2000
half duration:     15.0000
latitude:          38.7173
longitude:        141.8163
depth:          39.9300
Mrr:         2.104000e+27
Mtt:        -3.143000e+26
Mpp:        -1.790000e+27
Mrt:         2.193000e+27
Mrp:         3.185000e+27
Mtp:        -8.262000e+26
 PDE 2011  3 11  5 46 23.00  38.3215  142.3693  24.4 8.8 8.8 P
event name:      174715B_11
time shift:        26.8000
half duration:      8.0000
latitude:          39.1938
longitude:        142.2083
depth:          34.7500
Mrr:         1.869000e+27
Mtt:        -1.395000e+26
Mpp:        -1.729000e+27
Mrt:         9.411000e+26
Mrp:         3.098000e+27
Mtp:        -4.920000e+26
 PDE 2011  3 11  5 46 23.00  38.3215  142.3693  24.4 8.8 8.8 P
event name:      174715B_12
time shift:        29.2000
half duration:     15.0000
latitude:          38.1507
longitude:        141.8522
depth:          34.7500
Mrr:         2.103000e+27
Mtt:        -4.250000e+25
Mpp:        -2.061000e+27
Mrt:         2.335000e+26
Mrp:         3.709000e+27
Mtp:        -3.554000e+26
 PDE 2011  3 11  5 46 23.00  38.3215  142.3693  24.4 8.8 8.8 P
event name:      174715B_13
time shift:        29.4000
half duration:     10.4000
latitude:          37.9257
longitude:        142.9223
depth:           8.8710
Mrr:         6.710000e+26
Mtt:        -4.198000e+25
Mpp:        -6.290000e+26
Mrt:         2.794000e+26
Mrp:         1.128000e+27
Mtp:        -1.626000e+26
 PDE 2011  3 11  5 46 23.00  38.3215  142.3693  24.4 8.8 8.8 P
event name:      174715B_14
time shift:        29.6000
half duration:     14.6000
latitude:          37.6649
longitude:        142.8332
depth:           8.8710
Mrr:         5.931000e+26
Mtt:        -2.232000e+25
Mpp:        -5.708000e+26
Mrt:         1.404000e+26
Mrp:         1.026000e+27
Mtp:        -1.181000e+26
 PDE 2011  3 11  5 46 23.00  38.3215  142.3693  24.4 8.8 8.8 P
event name:      174715B_15
time shift:        30.4000
half duration:      9.6000
latitude:          39.2388
longitude:        141.9944
depth:          39.9300
Mrr:         1.779000e+27
Mtt:        -2.307000e+26
Mpp:        -1.548000e+27
Mrt:         1.601000e+27
Mrp:         2.761000e+27
Mtp:        -6.379000e+26
 PDE 2011  3 11  5 46 23.00  38.3215  142.3693  24.4 8.8 8.8 P
event name:      174715B_16
time shift:        33.6000
half duration:     10.0000
latitude:          38.0607
longitude:        142.2803
depth:          24.4000
Mrr:         2.583000e+27
Mtt:        -3.759000e+26
Mpp:        -2.207000e+27
Mrt:         2.621000e+27
Mrp:         3.929000e+27
Mtp:        -9.971000e+26
 PDE 2011  3 11  5 46 23.00  38.3215  142.3693  24.4 8.8 8.8 P
event name:      174715B_17
time shift:        34.0000
half duration:     10.0000
latitude:          38.7622
longitude:        141.6020
depth:          45.1100
Mrr:         1.634000e+27
Mtt:        -2.680000e+26
Mpp:        -1.366000e+27
Mrt:         1.876000e+27
Mrp:         2.427000e+27
Mtp:        -6.831000e+26
 PDE 2011  3 11  5 46 23.00  38.3215  142.3693  24.4 8.8 8.8 P
event name:      174715B_18
time shift:        37.2000
half duration:     11.2000
latitude:          37.9708
longitude:        142.7084
depth:          14.0500
Mrr:         1.289000e+27
Mtt:        -9.776000e+25
Mpp:        -1.192000e+27
Mrt:         6.601000e+26
Mrp:         2.135000e+27
Mtp:        -3.421000e+26
 PDE 2011  3 11  5 46 23.00  38.3215  142.3693  24.4 8.8 8.8 P
event name:      174715B_19
time shift:        38.2000
half duration:     13.4000
latitude:          38.7531
longitude:        142.9755
depth:          14.0500
Mrr:         1.941000e+27
Mtt:        -1.766000e+26
Mpp:        -1.764000e+27
Mrt:         1.206000e+27
Mrp:         3.157000e+27
Mtp:        -5.660000e+26
 PDE 2011  3 11  5 46 23.00  38.3215  142.3693  24.4 8.8 8.8 P
event name:      174715B_20
time shift:        39.4000
half duration:     11.0000
latitude:          38.9330
longitude:        142.1192
depth:          34.7500
Mrr:         1.774000e+27
Mtt:        -2.043000e+26
Mpp:        -1.569000e+27
Mrt:         1.411000e+27
Mrp:         2.802000e+27
Mtp:        -5.914000e+26
 PDE 2011  3 11  5 46 23.00  38.3215  142.3693  24.4 8.8 8.8 P
event name:      174715B_21
time shift:        39.6000
half duration:     18.2000
latitude:          39.1488
longitude:        142.4223
depth:          29.5800
Mrr:         2.250000e+27
Mtt:        -1.129000e+26
Mpp:        -2.137000e+27
Mrt:         7.363000e+26
Mrp:         3.838000e+27
Mtp:        -4.971000e+26
 PDE 2011  3 11  5 46 23.00  38.3215  142.3693  24.4 8.8 8.8 P
event name:      174715B_22
time shift:        40.2000
half duration:     10.8000
latitude:          37.7550
longitude:        142.4052
depth:          19.2200
Mrr:         2.134000e+27
Mtt:        -2.027000e+26
Mpp:        -1.931000e+27
Mrt:         1.387000e+27
Mrp:         3.455000e+27
Mtp:        -6.369000e+26
 PDE 2011  3 11  5 46 23.00  38.3215  142.3693  24.4 8.8 8.8 P
event name:      174715B_23
time shift:        42.4000
half duration:     15.8000
latitude:          37.5392
longitude:        142.1022
depth:          24.4000
Mrr:         2.560000e+27
Mtt:        -3.468000e+26
Mpp:        -2.213000e+27
Mrt:         2.411000e+27
Mrp:         3.944000e+27
Mtp:        -9.436000e+26
 PDE 2011  3 11  5 46 23.00  38.3215  142.3693  24.4 8.8 8.8 P
event name:      174715B_24
time shift:        42.6000
half duration:     10.8000
latitude:          39.1038
longitude:        142.6364
depth:          24.4000
Mrr:         2.400000e+27
Mtt:        -1.299000e+26
Mpp:        -2.270000e+27
Mrt:         8.533000e+26
Mrp:         4.075000e+27
Mtp:        -5.465000e+26
 PDE 2011  3 11  5 46 23.00  38.3215  142.3693  24.4 8.8 8.8 P
event name:      174715B_25
time shift:        43.4000
half duration:     12.0000
latitude:          38.2407
longitude:        141.4240
depth:          45.1100
Mrr:         1.451000e+27
Mtt:        -1.475000e+26
Mpp:        -1.303000e+27
Mrt:         1.013000e+27
Mrp:         2.330000e+27
Mtp:        -4.498000e+26
 PDE 2011  3 11  5 46 23.00  38.3215  142.3693  24.4 8.8 8.8 P
event name:      174715B_26
time shift:        43.6000
half duration:     13.6000
latitude:          38.5373
longitude:        142.6724
depth:          19.2200
Mrr:         2.457000e+27
Mtt:        -1.233000e+26
Mpp:        -2.334000e+27
Mrt:         8.037000e+26
Mrp:         4.191000e+27
Mtp:        -5.428000e+26
 PDE 2011  3 11  5 46 23.00  38.3215  142.3693  24.4 8.8 8.8 P
event name:      174715B_27
time shift:        43.6000
half duration:     13.8000
latitude:          37.6742
longitude:        141.4600
depth:          39.9300
Mrr:         7.072000e+26
Mtt:        -1.117000e+26
Mpp:        -5.955000e+26
Mrt:         7.808000e+26
Mrp:         1.059000e+27
Mtp:        -2.882000e+26
 PDE 2011  3 11  5 46 23.00  38.3215  142.3693  24.4 8.8 8.8 P
event name:      174715B_28
time shift:        44.8000
half duration:     13.6000
latitude:          37.8000
longitude:        142.1912
depth:          24.4000
Mrr:         2.873000e+27
Mtt:        -3.346000e+26
Mpp:        -2.539000e+27
Mrt:         2.312000e+27
Mrp:         4.533000e+27
Mtp:        -9.644000e+26
 PDE 2011  3 11  5 46 23.00  38.3215  142.3693  24.4 8.8 8.8 P
event name:      174715B_29
time shift:        45.0000
half duration:      9.4000
latitude:          38.4923
longitude:        142.8865
depth:          14.0500
Mrr:         1.772000e+27
Mtt:        -1.523000e+26
Mpp:        -1.620000e+27
Mrt:         1.036000e+27
Mrp:         2.900000e+27
Mtp:        -5.011000e+26
 PDE 2011  3 11  5 46 23.00  38.3215  142.3693  24.4 8.8 8.8 P
event name:      174715B_30
time shift:        45.0000
half duration:     13.4000
latitude:          37.7099
longitude:        142.6192
depth:          14.0500
Mrr:         1.262000e+27
Mtt:        -1.113000e+26
Mpp:        -1.151000e+27
Mrt:         7.586000e+26
Mrp:         2.060000e+27
Mtp:        -3.619000e+26
 PDE 2011  3 11  5 46 23.00  38.3215  142.3693  24.4 8.8 8.8 P
event name:      174715B_31
time shift:        45.8000
half duration:     16.2000
latitude:          38.9781
longitude:        141.9053
depth:          39.9300
Mrr:         1.648000e+27
Mtt:        -2.788000e+26
Mpp:        -1.369000e+27
Mrt:         1.953000e+27
Mrp:         2.432000e+27
Mtp:        -7.037000e+26
 PDE 2011  3 11  5 46 23.00  38.3215  142.3693  24.4 8.8 8.8 P
event name:      174715B_32
time shift:        46.4000
half duration:     17.2000
latitude:          37.9350
longitude:        141.5492
depth:          39.9300
Mrr:         1.544000e+27
Mtt:        -1.022000e+26
Mpp:        -1.442000e+27
Mrt:         6.832000e+26
Mrp:         2.585000e+27
Mtp:        -3.838000e+26
 PDE 2011  3 11  5 46 23.00  38.3215  142.3693  24.4 8.8 8.8 P
event name:      174715B_33
time shift:        47.0000
half duration:     14.2000
latitude:          37.4041
longitude:        142.7440
depth:           8.8710
Mrr:         7.308000e+26
Mtt:        -1.158000e+26
Mpp:        -6.150000e+26
Mrt:         8.099000e+26
Mrp:         1.094000e+27
Mtp:        -2.986000e+26
 PDE 2011  3 11  5 46 23.00  38.3215  142.3693  24.4 8.8 8.8 P
event name:      174715B_34
time shift:        47.4000
half duration:     13.0000
latitude:          37.5842
longitude:        141.8882
depth:          29.5800
Mrr:         2.574000e+27
Mtt:        -1.977000e+26
Mpp:        -2.376000e+27
Mrt:         1.336000e+27
Mrp:         4.257000e+27
Mtp:        -6.873000e+26
 PDE 2011  3 11  5 46 23.00  38.3215  142.3693  24.4 8.8 8.8 P
event name:      174715B_35
time shift:        47.6000
half duration:     12.0000
latitude:          39.3647
longitude:        142.7258
depth:          24.4000
Mrr:         1.494000e+27
Mtt:        -8.869000e+25
Mpp:        -1.406000e+27
Mrt:         5.876000e+26
Mrp:         2.522000e+27
Mtp:        -3.538000e+26
 PDE 2011  3 11  5 46 23.00  38.3215  142.3693  24.4 8.8 8.8 P
event name:      174715B_36
time shift:        48.0000
half duration:     15.6000
latitude:          38.8431
longitude:        142.5476
depth:          24.4000
Mrr:         2.795000e+27
Mtt:        -1.367000e+26
Mpp:        -2.658000e+27
Mrt:         8.889000e+26
Mrp:         4.774000e+27
Mtp:        -6.113000e+26
 PDE 2011  3 11  5 46 23.00  38.3215  142.3693  24.4 8.8 8.8 P
event name:      174715B_37
time shift:        49.4000
half duration:     10.0000
latitude:          36.6668
longitude:        142.2631
depth:          14.0500
Mrr:         1.091000e+27
Mtt:        -1.402000e+26
Mpp:        -9.509000e+26
Mrt:         9.730000e+26
Mrp:         1.696000e+27
Mtp:        -3.890000e+26
 PDE 2011  3 11  5 46 23.00  38.3215  142.3693  24.4 8.8 8.8 P
event name:      174715B_38
time shift:        50.0000
half duration:     11.8000
latitude:          38.1057
longitude:        142.0661
depth:          29.5800
Mrr:         2.389000e+27
Mtt:        -2.876000e+26
Mpp:        -2.101000e+27
Mrt:         1.991000e+27
Mrp:         3.750000e+27
Mtp:        -8.182000e+26
 PDE 2011  3 11  5 46 23.00  38.3215  142.3693  24.4 8.8 8.8 P
event name:      174715B_39
time shift:        50.8000
half duration:     11.8000
latitude:          37.1884
longitude:        142.4412
depth:          14.0500
Mrr:         1.831000e+27
Mtt:        -2.271000e+26
Mpp:        -1.604000e+27
Mrt:         1.574000e+27
Mrp:         2.862000e+27
Mtp:        -6.388000e+26
 PDE 2011  3 11  5 46 23.00  38.3215  142.3693  24.4 8.8 8.8 P
event name:      174715B_40
time shift:        50.8000
half duration:     12.6000
latitude:          38.2315
longitude:        142.7976
depth:          14.0500
Mrr:         1.486000e+27
Mtt:        -2.213000e+26
Mpp:        -1.265000e+27
Mrt:         1.544000e+27
Mrp:         2.252000e+27
Mtp:        -5.824000e+26
 PDE 2011  3 11  5 46 23.00  38.3215  142.3693  24.4 8.8 8.8 P
event name:      174715B_41
time shift:        51.2000
half duration:     14.0000
latitude:          39.0138
longitude:        143.0644
depth:          14.0500
Mrr:         1.673000e+27
Mtt:        -1.868000e+26
Mpp:        -1.486000e+27
Mrt:         1.289000e+27
Mrp:         2.655000e+27
Mtp:        -5.478000e+26
 PDE 2011  3 11  5 46 23.00  38.3215  142.3693  24.4 8.8 8.8 P
event name:      174715B_42
time shift:        51.2000
half duration:     16.2000
latitude:          39.4096
longitude:        142.5113
depth:          29.5800
Mrr:         1.396000e+27
Mtt:         5.304000e+24
Mpp:        -1.402000e+27
Mrt:        -8.665000e+25
Mrp:         2.527000e+27
Mtp:        -1.779000e+26
 PDE 2011  3 11  5 46 23.00  38.3215  142.3693  24.4 8.8 8.8 P
event name:      174715B_43
time shift:        51.4000
half duration:     14.8000
latitude:          38.1865
longitude:        143.0116
depth:           8.8710
Mrr:         6.336000e+26
Mtt:        -8.798000e+25
Mpp:        -5.457000e+26
Mrt:         6.123000e+26
Mrp:         9.721000e+26
Mtp:        -2.373000e+26
 PDE 2011  3 11  5 46 23.00  38.3215  142.3693  24.4 8.8 8.8 P
event name:      174715B_44
time shift:        53.4000
half duration:     14.4000
latitude:          38.9688
longitude:        143.2785
depth:           8.8710
Mrr:         8.192000e+26
Mtt:        -7.196000e+25
Mpp:        -7.472000e+26
Mrt:         4.904000e+26
Mrp:         1.337000e+27
Mtp:        -2.344000e+26
 PDE 2011  3 11  5 46 23.00  38.3215  142.3693  24.4 8.8 8.8 P
event name:      174715B_45
time shift:        54.0000
half duration:     14.2000
latitude:          38.4473
longitude:        143.1005
depth:           8.8710
Mrr:         9.255000e+26
Mtt:        -1.127000e+26
Mpp:        -8.128000e+26
Mrt:         7.802000e+26
Mrp:         1.450000e+27
Mtp:        -3.191000e+26
 PDE 2011  3 11  5 46 23.00  38.3215  142.3693  24.4 8.8 8.8 P
event name:      174715B_46
time shift:        54.2000
half duration:      8.6000
latitude:          37.2784
longitude:        142.0130
depth:          24.4000
Mrr:         2.053000e+27
Mtt:        -2.838000e+26
Mpp:        -1.770000e+27
Mrt:         1.975000e+27
Mrp:         3.153000e+27
Mtp:        -7.667000e+26
 PDE 2011  3 11  5 46 23.00  38.3215  142.3693  24.4 8.8 8.8 P
event name:      174715B_47
time shift:        54.2000
half duration:     12.2000
latitude:          38.6273
longitude:        142.2444
depth:          29.5800
Mrr:         2.998000e+27
Mtt:        -2.845000e+26
Mpp:        -2.714000e+27
Mrt:         1.947000e+27
Mrp:         4.855000e+27
Mtp:        -8.945000e+26
 PDE 2011  3 11  5 46 23.00  38.3215  142.3693  24.4 8.8 8.8 P
event name:      174715B_48
time shift:        55.4000
half duration:     14.0000
latitude:          39.0588
longitude:        142.8504
depth:          19.2200
Mrr:         2.114000e+27
Mtt:        -1.662000e+26
Mpp:        -1.948000e+27
Mrt:         1.125000e+27
Mrp:         3.490000e+27
Mtp:        -5.712000e+26
 PDE 2011  3 11  5 46 23.00  38.3215  142.3693  24.4 8.8 8.8 P
event name:      174715B_49
time shift:        56.0000
half duration:     10.2000
latitude:          39.7154
longitude:        142.3867
depth:          34.7500
Mrr:         2.312000e+26
Mtt:         3.302000e+25
Mpp:        -2.642000e+26
Mrt:        -2.460000e+26
Mrp:         4.805000e+26
Mtp:         2.621000e+25
 PDE 2011  3 11  5 46 23.00  38.3215  142.3693  24.4 8.8 8.8 P
event name:      174715B_50
time shift:        56.2000
half duration:     12.0000
latitude:          37.8900
longitude:        141.7632
depth:          34.7500
Mrr:         1.905000e+27
Mtt:        -1.277000e+26
Mpp:        -1.778000e+27
Mrt:         8.547000e+26
Mrp:         3.187000e+27
Mtp:        -4.765000e+26
 PDE 2011  3 11  5 46 23.00  38.3215  142.3693  24.4 8.8 8.8 P
event name:      174715B_51
time shift:        56.6000
half duration:     11.0000
latitude:          36.9726
longitude:        142.1380
depth:          19.2200
Mrr:         1.547000e+27
Mtt:        -2.720000e+26
Mpp:        -1.275000e+27
Mrt:         1.907000e+27
Mrp:         2.263000e+27
Mtp:        -6.783000e+26
 PDE 2011  3 11  5 46 23.00  38.3215  142.3693  24.4 8.8 8.8 P
event name:      174715B_52
time shift:        57.2000
half duration:     12.6000
latitude:          38.8881
longitude:        142.3334
depth:          29.5800
Mrr:         2.564000e+27
Mtt:        -1.678000e+26
Mpp:        -2.397000e+27
Mrt:         1.121000e+27
Mrp:         4.298000e+27
Mtp:        -6.343000e+26
 PDE 2011  3 11  5 46 23.00  38.3215  142.3693  24.4 8.8 8.8 P
event name:      174715B_53
time shift:        57.2000
half duration:     18.6000
latitude:          37.4492
longitude:        142.5303
depth:          14.0500
Mrr:         1.575000e+27
Mtt:        -2.279000e+26
Mpp:        -1.347000e+27
Mrt:         1.589000e+27
Mrp:         2.399000e+27
Mtp:        -6.058000e+26
 PDE 2011  3 11  5 46 23.00  38.3215  142.3693  24.4 8.8 8.8 P
event name:      174715B_54
time shift:        57.8000
half duration:     10.4000
latitude:          39.6705
longitude:        142.6008
depth:          29.5800
Mrr:         3.885000e+26
Mtt:         5.797000e+25
Mpp:        -4.465000e+26
Mrt:        -4.314000e+26
Mrp:         8.123000e+26
Mtp:         4.836000e+25
 PDE 2011  3 11  5 46 23.00  38.3215  142.3693  24.4 8.8 8.8 P
event name:      174715B_55
time shift:        58.4000
half duration:     13.2000
latitude:          36.9276
longitude:        142.3520
depth:          14.0500
Mrr:         1.727000e+27
Mtt:        -2.373000e+26
Mpp:        -1.490000e+27
Mrt:         1.651000e+27
Mrp:         2.654000e+27
Mtp:        -6.424000e+26
 PDE 2011  3 11  5 46 23.00  38.3215  142.3693  24.4 8.8 8.8 P
event name:      174715B_56
time shift:        59.2000
half duration:     14.8000
latitude:          39.4546
longitude:        142.2975
depth:          34.7500
Mrr:         1.079000e+27
Mtt:        -8.548000e+25
Mpp:        -9.936000e+26
Mrt:         5.789000e+26
Mrp:         1.780000e+27
Mtp:        -2.926000e+26
 PDE 2011  3 11  5 46 23.00  38.3215  142.3693  24.4 8.8 8.8 P
event name:      174715B_57
time shift:        59.8000
half duration:     12.0000
latitude:          37.6292
longitude:        141.6740
depth:          34.7500
Mrr:         1.549000e+27
Mtt:        -1.937000e+26
Mpp:        -1.355000e+27
Mrt:         1.343000e+27
Mrp:         2.418000e+27
Mtp:        -5.430000e+26
 PDE 2011  3 11  5 46 23.00  38.3215  142.3693  24.4 8.8 8.8 P
event name:      174715B_58
time shift:        59.8000
half duration:     16.2000
latitude:          39.2838
longitude:        141.7801
depth:          45.1100
Mrr:         1.723000e+27
Mtt:        -2.518000e+26
Mpp:        -1.471000e+27
Mrt:         1.756000e+27
Mrp:         2.619000e+27
Mtp:        -6.669000e+26
 PDE 2011  3 11  5 46 23.00  38.3215  142.3693  24.4 8.8 8.8 P
event name:      174715B_59
time shift:        60.0000
half duration:     11.8000
latitude:          37.0176
longitude:        141.9239
depth:          24.4000
Mrr:         1.092000e+27
Mtt:        -1.851000e+26
Mpp:        -9.065000e+26
Mrt:         1.297000e+27
Mrp:         1.610000e+27
Mtp:        -4.668000e+26
 PDE 2011  3 11  5 46 23.00  38.3215  142.3693  24.4 8.8 8.8 P
event name:      174715B_60
time shift:        60.8000
half duration:     11.6000
latitude:          38.8073
longitude:        141.3882
depth:          50.2800
Mrr:         9.304000e+26
Mtt:        -2.499000e+26
Mpp:        -6.805000e+26
Mrt:         1.770000e+27
Mrp:         1.194000e+27
Mtp:        -5.575000e+26
 PDE 2011  3 11  5 46 23.00  38.3215  142.3693  24.4 8.8 8.8 P
event name:      174715B_61
time shift:        61.2000
half duration:     15.4000
latitude:          38.5015
longitude:        141.5130
depth:          45.1100
Mrr:         1.489000e+27
Mtt:        -3.169000e+26
Mpp:        -1.172000e+27
Mrt:         2.233000e+27
Mrp:         2.072000e+27
Mtp:        -7.485000e+26
 PDE 2011  3 11  5 46 23.00  38.3215  142.3693  24.4 8.8 8.8 P
event name:      174715B_62
time shift:        61.6000
half duration:     16.8000
latitude:          38.7980
longitude:        142.7614
depth:          19.2200
Mrr:         2.559000e+27
Mtt:        -1.105000e+26
Mpp:        -2.449000e+27
Mrt:         7.082000e+26
Mrp:         4.400000e+27
Mtp:        -5.344000e+26
 PDE 2011  3 11  5 46 23.00  38.3215  142.3693  24.4 8.8 8.8 P
event name:      174715B_63
time shift:        61.8000
half duration:      9.8000
latitude:          37.7641
longitude:        141.0318
depth:          50.2800
Mrr:         8.472000e+26
Mtt:         7.130000e+25
Mpp:        -9.185000e+26
Mrt:        -5.434000e+26
Mrp:         1.665000e+27
Mtp:         9.985000e+24
 PDE 2011  3 11  5 46 23.00  38.3215  142.3693  24.4 8.8 8.8 P
event name:      174715B_64
time shift:        62.6000
half duration:     16.6000
latitude:          39.3196
longitude:        142.9397
depth:          19.2200
Mrr:         1.247000e+27
Mtt:        -1.662000e+26
Mpp:        -1.081000e+27
Mrt:         1.155000e+27
Mrp:         1.927000e+27
Mtp:        -4.549000e+26
 PDE 2011  3 11  5 46 23.00  38.3215  142.3693  24.4 8.8 8.8 P
event name:      174715B_65
time shift:        63.4000
half duration:     11.6000
latitude:          38.2857
longitude:        141.2099
depth:          50.2800
Mrr:         4.714000e+26
Mtt:        -9.278000e+25
Mpp:        -3.786000e+26
Mrt:         6.526000e+26
Mrp:         6.704000e+26
Mtp:        -2.238000e+26
 PDE 2011  3 11  5 46 23.00  38.3215  142.3693  24.4 8.8 8.8 P
event name:      174715B_66
time shift:        64.0000
half duration:      8.8000
latitude:          36.7568
longitude:        141.8348
depth:          24.4000
Mrr:         3.649000e+26
Mtt:        -1.564000e+25
Mpp:        -3.493000e+26
Mrt:         1.001000e+26
Mrp:         6.276000e+26
Mtp:        -7.598000e+25
 PDE 2011  3 11  5 46 23.00  38.3215  142.3693  24.4 8.8 8.8 P
event name:      174715B_67
time shift:        64.6000
half duration:     10.8000
latitude:          38.5465
longitude:        141.2992
depth:          50.2800
Mrr:         9.060000e+26
Mtt:        -1.529000e+26
Mpp:        -7.532000e+26
Mrt:         1.071000e+27
Mrp:         1.338000e+27
Mtp:        -3.861000e+26
 PDE 2011  3 11  5 46 23.00  38.3215  142.3693  24.4 8.8 8.8 P
event name:      174715B_68
time shift:        64.6000
half duration:     11.2000
latitude:          39.2747
longitude:        143.1538
depth:          14.0500
Mrr:         1.160000e+27
Mtt:        -1.922000e+26
Mpp:        -9.674000e+26
Mrt:         1.346000e+27
Mrp:         1.719000e+27
Mtp:        -4.883000e+26
 PDE 2011  3 11  5 46 23.00  38.3215  142.3693  24.4 8.8 8.8 P
event name:      174715B_69
time shift:        64.6000
half duration:     12.4000
latitude:          37.3234
longitude:        141.7990
depth:          29.5800
Mrr:         1.803000e+27
Mtt:        -2.445000e+25
Mpp:        -1.779000e+27
Mrt:         1.137000e+26
Mrp:         3.203000e+27
Mtp:        -2.839000e+26
 PDE 2011  3 11  5 46 23.00  38.3215  142.3693  24.4 8.8 8.8 P
event name:      174715B_70
time shift:        65.0000
half duration:     15.0000
latitude:          37.8450
longitude:        141.9772
depth:          29.5800
Mrr:         2.894000e+27
Mtt:        -1.684000e+26
Mpp:        -2.726000e+27
Mrt:         1.114000e+27
Mrp:         4.892000e+27
Mtp:        -6.794000e+26
 PDE 2011  3 11  5 46 23.00  38.3215  142.3693  24.4 8.8 8.8 P
event name:      174715B_71
time shift:        66.0000
half duration:      9.2000
latitude:          37.9799
longitude:        141.3349
depth:          45.1100
Mrr:         1.929000e+27
Mtt:        -8.734000e+25
Mpp:        -1.842000e+27
Mrt:         5.628000e+26
Mrp:         3.308000e+27
Mtp:        -4.097000e+26
 PDE 2011  3 11  5 46 23.00  38.3215  142.3693  24.4 8.8 8.8 P
event name:      174715B_72
time shift:        66.0000
half duration:     12.2000
latitude:          37.4134
longitude:        141.3708
depth:          39.9300
Mrr:         1.409000e+26
Mtt:        -1.239000e+25
Mpp:        -1.286000e+26
Mrt:         8.443000e+25
Mrp:         2.301000e+26
Mtp:        -4.034000e+25
 PDE 2011  3 11  5 46 23.00  38.3215  142.3693  24.4 8.8 8.8 P
event name:      174715B_73
time shift:        66.2000
half duration:     11.4000
latitude:          37.7191
longitude:        141.2459
depth:          45.1100
Mrr:         9.238000e+26
Mtt:        -3.845000e+25
Mpp:        -8.853000e+26
Mrt:         2.452000e+26
Mrp:         1.591000e+27
Mtp:        -1.904000e+26
 PDE 2011  3 11  5 46 23.00  38.3215  142.3693  24.4 8.8 8.8 P
event name:      174715B_74
time shift:        66.8000
half duration:     12.4000
latitude:          39.2296
longitude:        143.3677
depth:           8.8710
Mrr:         5.478000e+26
Mtt:        -7.237000e+25
Mpp:        -4.755000e+26
Mrt:         5.028000e+26
Mrp:         8.476000e+26
Mtp:        -1.987000e+26
 PDE 2011  3 11  5 46 23.00  38.3215  142.3693  24.4 8.8 8.8 P
event name:      174715B_75
time shift:        67.0000
half duration:     10.6000
latitude:          38.3307
longitude:        140.9959
depth:          55.4600
Mrr:         2.409000e+26
Mtt:        -2.454000e+25
Mpp:        -2.163000e+26
Mrt:         1.686000e+26
Mrp:         3.868000e+26
Mtp:        -7.477000e+25
 PDE 2011  3 11  5 46 23.00  38.3215  142.3693  24.4 8.8 8.8 P
event name:      174715B_76
time shift:        67.6000
half duration:     12.4000
latitude:          39.0680
longitude:        141.4773
depth:          50.2800
Mrr:         1.448000e+27
Mtt:        -1.652000e+26
Mpp:        -1.283000e+27
Mrt:         1.141000e+27
Mrp:         2.291000e+27
Mtp:        -4.802000e+26
 PDE 2011  3 11  5 46 23.00  38.3215  142.3693  24.4 8.8 8.8 P
event name:      174715B_77
time shift:        68.0000
half duration:     14.8000
latitude:          39.4996
longitude:        142.0833
depth:          39.9300
Mrr:         1.119000e+27
Mtt:        -1.531000e+26
Mpp:        -9.658000e+26
Mrt:         1.065000e+27
Mrp:         1.721000e+27
Mtp:        -4.150000e+26
 PDE 2011  3 11  5 46 23.00  38.3215  142.3693  24.4 8.8 8.8 P
event name:      174715B_78
time shift:        68.6000
half duration:     13.8000
latitude:          36.7118
longitude:        142.0489
depth:          19.2200
Mrr:         6.905000e+26
Mtt:        -1.427000e+26
Mpp:        -5.479000e+26
Mrt:         1.005000e+27
Mrp:         9.691000e+26
Mtp:        -3.396000e+26
 PDE 2011  3 11  5 46 23.00  38.3215  142.3693  24.4 8.8 8.8 P
event name:      174715B_79
time shift:        69.2000
half duration:     14.8000
latitude:          36.8826
longitude:        142.5660
depth:           8.8710
Mrr:         8.990000e+26
Mtt:        -9.017000e+25
Mpp:        -8.088000e+26
Mrt:         6.190000e+26
Mrp:         1.446000e+27
Mtp:        -2.766000e+26
 PDE 2011  3 11  5 46 23.00  38.3215  142.3693  24.4 8.8 8.8 P