PDE 1994  6  9  0 33 16.40 -13.8300  -67.5600 637.0 6.9 6.8 NORTHERN BOLIVIA                        
event name:     060994A        
time shift:     29.0000
half duration:  30.0000
latitude:        0.0000
longitude:       0.0000
depth:           0.0000
Mrr:      0.00e+27
Mtt:      0.00e+27
Mpp:      0.00e+27
Mrt:      0.00e+28
Mrp:      0.00e+26
Mtp:      0.00e+27
