PDE 2002 11  3 22 12 41.00  63.52  -147.44   5.0 7.9 8.0 Denali, US
event name:      174715B_1
time shift:         0.0000
half duration:      0.8000
latitude:          63.5303
longitude:       -147.4524
depth:          10.0000
Mrr:         6.050000e+23
Mtt:        -8.910000e+23
Mpp:         2.860000e+23
Mrt:        -1.633000e+24
Mrp:         4.811000e+23
Mtp:        -2.014000e+24
PDE 2002 11  3 22 12 41.00  63.52  -147.44   5.0 7.9 8.0 Denali, US
event name:      174715B_10
time shift:         4.2000
half duration:      2.6000
latitude:          63.5178
longitude:       -147.4544
depth:           2.1220
Mrr:        -1.459000e+22
Mtt:        -1.204000e+22
Mpp:         2.663000e+22
Mrt:         4.234000e+22
Mrp:         3.078000e+22
Mtp:        -1.900000e+23
PDE 2002 11  3 22 12 41.00  63.52  -147.44   5.0 7.9 8.0 Denali, US
event name:      174715B_100
time shift:        13.8000
half duration:      1.6000
latitude:          63.5239
longitude:       -146.6438
depth:          21.8200
Mrr:        -6.011000e+23
Mtt:        -8.177000e+23
Mpp:         1.419000e+24
Mrt:         1.773000e+24
Mrp:         1.674000e+24
Mtp:        -1.012000e+25
PDE 2002 11  3 22 12 41.00  63.52  -147.44   5.0 7.9 8.0 Denali, US
event name:      174715B_101
time shift:        14.0000
half duration:      1.4000
latitude:          63.5176
longitude:       -146.6448
depth:          17.8800
Mrr:        -7.676000e+23
Mtt:        -5.061000e+22
Mpp:         8.182000e+23
Mrt:         2.176000e+24
Mrp:         8.823000e+23
Mtp:        -5.849000e+24
PDE 2002 11  3 22 12 41.00  63.52  -147.44   5.0 7.9 8.0 Denali, US
event name:      174715B_102
time shift:        14.0000
half duration:      2.8000
latitude:          63.4700
longitude:       -147.0863
depth:           1.0600
Mrr:         8.733000e+24
Mtt:        -6.702000e+24
Mpp:        -2.030000e+24
Mrt:         6.385000e+24
Mrp:         9.349000e+22
Mtp:        -4.738000e+24
PDE 2002 11  3 22 12 41.00  63.52  -147.44   5.0 7.9 8.0 Denali, US
event name:      174715B_103
time shift:        14.2000
half duration:      1.4000
latitude:          63.5207
longitude:       -146.5431
depth:          21.8200
Mrr:         2.367000e+24
Mtt:        -3.737000e+24
Mpp:         1.370000e+24
Mrt:        -6.366000e+24
Mrp:         2.199000e+24
Mtp:        -9.663000e+24
PDE 2002 11  3 22 12 41.00  63.52  -147.44   5.0 7.9 8.0 Denali, US
event name:      174715B_104
time shift:        14.4000
half duration:      2.0000
latitude:          63.5240
longitude:       -147.0719
depth:           3.1800
Mrr:         1.544000e+25
Mtt:        -1.143000e+25
Mpp:        -4.016000e+24
Mrt:         1.077000e+25
Mrp:         6.164000e+23
Mtp:        -8.319000e+24
PDE 2002 11  3 22 12 41.00  63.52  -147.44   5.0 7.9 8.0 Denali, US
event name:      174715B_105
time shift:        14.4000
half duration:      2.4000
latitude:          63.4927
longitude:       -146.6487
depth:           2.1220
Mrr:         1.905000e+24
Mtt:        -2.806000e+24
Mpp:         9.006000e+23
Mrt:        -5.141000e+24
Mrp:         1.515000e+24
Mtp:        -6.341000e+24
PDE 2002 11  3 22 12 41.00  63.52  -147.44   5.0 7.9 8.0 Denali, US
event name:      174715B_106
time shift:        14.4000
half duration:      2.4000
latitude:          63.5040
longitude:       -147.0203
depth:           1.0600
Mrr:         9.258000e+24
Mtt:        -7.105000e+24
Mpp:        -2.152000e+24
Mrt:         6.769000e+24
Mrp:         9.912000e+22
Mtp:        -5.022000e+24
PDE 2002 11  3 22 12 41.00  63.52  -147.44   5.0 7.9 8.0 Denali, US
event name:      174715B_107
time shift:        14.4000
half duration:      2.4000
latitude:          63.5780
longitude:       -147.0573
depth:           5.2990
Mrr:         8.623000e+24
Mtt:        -5.509000e+24
Mpp:        -3.113000e+24
Mrt:         4.952000e+24
Mrp:         1.268000e+24
Mtp:        -4.522000e+24
PDE 2002 11  3 22 12 41.00  63.52  -147.44   5.0 7.9 8.0 Denali, US
event name:      174715B_108
time shift:        14.6000
half duration:      1.4000
latitude:          63.4958
longitude:       -146.5470
depth:           6.0610
Mrr:         8.726000e+23
Mtt:        -1.285000e+24
Mpp:         4.125000e+23
Mrt:        -2.355000e+24
Mrp:         6.939000e+23
Mtp:        -2.904000e+24
PDE 2002 11  3 22 12 41.00  63.52  -147.44   5.0 7.9 8.0 Denali, US
event name:      174715B_109
time shift:        15.0000
half duration:      1.4000
latitude:          63.5380
longitude:       -146.9544
depth:           1.0600
Mrr:         5.674000e+24
Mtt:        -4.355000e+24
Mpp:        -1.319000e+24
Mrt:         4.148000e+24
Mrp:         6.075000e+22
Mtp:        -3.078000e+24
PDE 2002 11  3 22 12 41.00  63.52  -147.44   5.0 7.9 8.0 Denali, US
event name:      174715B_11
time shift:         4.6000
half duration:      3.8000
latitude:          63.5334
longitude:       -147.3507
depth:          13.9400
Mrr:         3.491000e+23
Mtt:        -5.142000e+23
Mpp:         1.650000e+23
Mrt:        -9.421000e+23
Mrp:         2.776000e+23
Mtp:        -1.162000e+24
PDE 2002 11  3 22 12 41.00  63.52  -147.44   5.0 7.9 8.0 Denali, US
event name:      174715B_110
time shift:        15.0000
half duration:      1.8000
latitude:          63.5580
longitude:       -147.0059
depth:           3.1800
Mrr:         1.081000e+25
Mtt:        -8.299000e+24
Mpp:        -2.514000e+24
Mrt:         7.905000e+24
Mrp:         1.158000e+23
Mtp:        -5.866000e+24
PDE 2002 11  3 22 12 41.00  63.52  -147.44   5.0 7.9 8.0 Denali, US
event name:      174715B_111
time shift:        15.0000
half duration:      3.0000
latitude:          63.5114
longitude:       -146.6458
depth:          13.9400
Mrr:        -9.109000e+22
Mtt:        -1.239000e+23
Mpp:         2.150000e+23
Mrt:         2.686000e+23
Mrp:         2.537000e+23
Mtp:        -1.533000e+24
PDE 2002 11  3 22 12 41.00  63.52  -147.44   5.0 7.9 8.0 Denali, US
event name:      174715B_112
time shift:        15.0000
half duration:      3.4000
latitude:          63.5426
longitude:       -146.8432
depth:          29.7000
Mrr:         1.745000e+24
Mtt:        -2.569000e+24
Mpp:         8.247000e+23
Mrt:        -4.708000e+24
Mrp:         1.387000e+24
Mtp:        -5.807000e+24
PDE 2002 11  3 22 12 41.00  63.52  -147.44   5.0 7.9 8.0 Denali, US
event name:      174715B_113
time shift:        15.2000
half duration:      1.2000
latitude:          63.4864
longitude:       -146.4473
depth:           2.1220
Mrr:         1.691000e+24
Mtt:        -2.490000e+24
Mpp:         7.994000e+23
Mrt:        -4.563000e+24
Mrp:         1.345000e+24
Mtp:        -5.629000e+24
PDE 2002 11  3 22 12 41.00  63.52  -147.44   5.0 7.9 8.0 Denali, US
event name:      174715B_114
time shift:        15.2000
half duration:      1.2000
latitude:          63.4895
longitude:       -146.5480
depth:           2.1220
Mrr:         1.738000e+24
Mtt:        -2.559000e+24
Mpp:         8.214000e+23
Mrt:        -4.689000e+24
Mrp:         1.382000e+24
Mtp:        -5.784000e+24
PDE 2002 11  3 22 12 41.00  63.52  -147.44   5.0 7.9 8.0 Denali, US
event name:      174715B_115
time shift:        15.8000
half duration:      1.2000
latitude:          63.5332
longitude:       -146.5412
depth:          29.7000
Mrr:         5.234000e+24
Mtt:        -7.708000e+24
Mpp:         2.474000e+24
Mrt:        -1.412000e+25
Mrp:         4.162000e+24
Mtp:        -1.742000e+25
PDE 2002 11  3 22 12 41.00  63.52  -147.44   5.0 7.9 8.0 Denali, US
event name:      174715B_116
time shift:        15.8000
half duration:      2.2000
latitude:          63.5363
longitude:       -146.6419
depth:          29.7000
Mrr:         4.362000e+24
Mtt:        -6.424000e+24
Mpp:         2.062000e+24
Mrt:        -1.177000e+25
Mrp:         3.469000e+24
Mtp:        -1.452000e+25
PDE 2002 11  3 22 12 41.00  63.52  -147.44   5.0 7.9 8.0 Denali, US
event name:      174715B_117
time shift:        15.8000
half duration:      4.2000
latitude:          63.5395
longitude:       -146.7426
depth:          29.7000
Mrr:         3.053000e+24
Mtt:        -4.497000e+24
Mpp:         1.443000e+24
Mrt:        -8.239000e+24
Mrp:         2.428000e+24
Mtp:        -1.016000e+25
PDE 2002 11  3 22 12 41.00  63.52  -147.44   5.0 7.9 8.0 Denali, US
event name:      174715B_118
time shift:        16.6000
half duration:      4.2000
latitude:          63.5332
longitude:       -146.7436
depth:          25.7600
Mrr:         3.053000e+24
Mtt:        -4.497000e+24
Mpp:         1.443000e+24
Mrt:        -8.239000e+24
Mrp:         2.428000e+24
Mtp:        -1.016000e+25
PDE 2002 11  3 22 12 41.00  63.52  -147.44   5.0 7.9 8.0 Denali, US
event name:      174715B_119
time shift:        17.2000
half duration:      3.6000
latitude:          63.5301
longitude:       -146.6428
depth:          25.7600
Mrr:         4.362000e+24
Mtt:        -6.424000e+24
Mpp:         2.062000e+24
Mrt:        -1.177000e+25
Mrp:         3.469000e+24
Mtp:        -1.452000e+25
PDE 2002 11  3 22 12 41.00  63.52  -147.44   5.0 7.9 8.0 Denali, US
event name:      174715B_12
time shift:         5.0000
half duration:      2.6000
latitude:          63.5232
longitude:       -147.5523
depth:           9.6000
Mrr:         1.544000e+25
Mtt:        -1.648000e+25
Mpp:         1.031000e+24
Mrt:         8.534000e+24
Mrp:        -6.602000e+24
Mtp:         2.512000e+24
PDE 2002 11  3 22 12 41.00  63.52  -147.44   5.0 7.9 8.0 Denali, US
event name:      174715B_120
time shift:        17.4000
half duration:      1.4000
latitude:          63.5301
longitude:       -146.4404
depth:          29.7000
Mrr:         5.234000e+24
Mtt:        -7.708000e+24
Mpp:         2.474000e+24
Mrt:        -1.412000e+25
Mrp:         4.162000e+24
Mtp:        -1.742000e+25
PDE 2002 11  3 22 12 41.00  63.52  -147.44   5.0 7.9 8.0 Denali, US
event name:      174715B_121
time shift:        17.6000
half duration:      1.6000
latitude:          63.4895
longitude:       -146.3456
depth:           6.0610
Mrr:        -2.618000e+24
Mtt:         1.355000e+24
Mpp:         1.263000e+24
Mrt:         7.285000e+24
Mrp:         1.078000e+24
Mtp:        -9.077000e+24
PDE 2002 11  3 22 12 41.00  63.52  -147.44   5.0 7.9 8.0 Denali, US
event name:      174715B_122
time shift:        17.6000
half duration:      2.6000
latitude:          63.5269
longitude:       -146.5421
depth:          25.7600
Mrr:         6.106000e+24
Mtt:        -8.993000e+24
Mpp:         2.887000e+24
Mrt:        -1.648000e+25
Mrp:         4.856000e+24
Mtp:        -2.033000e+25
PDE 2002 11  3 22 12 41.00  63.52  -147.44   5.0 7.9 8.0 Denali, US
event name:      174715B_123
time shift:        17.8000
half duration:      1.8000
latitude:          63.4926
longitude:       -146.4463
depth:           6.0610
Mrr:        -8.215000e+23
Mtt:         3.844000e+23
Mpp:         4.371000e+23
Mrt:         2.290000e+24
Mrp:         3.899000e+23
Mtp:        -3.139000e+24
PDE 2002 11  3 22 12 41.00  63.52  -147.44   5.0 7.9 8.0 Denali, US
event name:      174715B_124
time shift:        18.2000
half duration:      1.4000
latitude:          63.4833
longitude:       -146.3466
depth:           2.1220
Mrr:        -1.728000e+24
Mtt:         8.945000e+23
Mpp:         8.338000e+23
Mrt:         4.810000e+24
Mrp:         7.119000e+23
Mtp:        -5.993000e+24
PDE 2002 11  3 22 12 41.00  63.52  -147.44   5.0 7.9 8.0 Denali, US
event name:      174715B_125
time shift:        18.4000
half duration:      2.2000
latitude:          63.4957
longitude:       -146.3446
depth:          10.0000
Mrr:        -2.118000e+24
Mtt:         1.096000e+24
Mpp:         1.022000e+24
Mrt:         5.893000e+24
Mrp:         8.723000e+23
Mtp:        -7.343000e+24
PDE 2002 11  3 22 12 41.00  63.52  -147.44   5.0 7.9 8.0 Denali, US
event name:      174715B_126
time shift:        19.0000
half duration:      1.4000
latitude:          63.4926
longitude:       -146.2440
depth:          10.0000
Mrr:        -2.420000e+24
Mtt:         1.253000e+24
Mpp:         1.168000e+24
Mrt:         6.735000e+24
Mrp:         9.969000e+23
Mtp:        -8.392000e+24
PDE 2002 11  3 22 12 41.00  63.52  -147.44   5.0 7.9 8.0 Denali, US
event name:      174715B_127
time shift:        19.0000
half duration:      1.4000
latitude:          63.5269
longitude:       -146.3398
depth:          29.7000
Mrr:         4.362000e+24
Mtt:        -6.424000e+24
Mpp:         2.062000e+24
Mrt:        -1.177000e+25
Mrp:         3.469000e+24
Mtp:        -1.452000e+25
PDE 2002 11  3 22 12 41.00  63.52  -147.44   5.0 7.9 8.0 Denali, US
event name:      174715B_128
time shift:        19.2000
half duration:      1.6000
latitude:          63.4864
longitude:       -146.2449
depth:           6.0610
Mrr:        -2.036000e+24
Mtt:         1.054000e+24
Mpp:         9.822000e+23
Mrt:         5.666000e+24
Mrp:         8.387000e+23
Mtp:        -7.060000e+24
PDE 2002 11  3 22 12 41.00  63.52  -147.44   5.0 7.9 8.0 Denali, US
event name:      174715B_129
time shift:        19.8000
half duration:      1.2000
latitude:          63.4853
longitude:       -146.1292
depth:          13.7900
Mrr:        -2.841000e+24
Mtt:        -9.350000e+24
Mpp:         1.219000e+25
Mrt:         8.157000e+24
Mrp:        -1.080000e+24
Mtp:        -1.022000e+25
PDE 2002 11  3 22 12 41.00  63.52  -147.44   5.0 7.9 8.0 Denali, US
event name:      174715B_13
time shift:         5.0000
half duration:      3.0000
latitude:          63.5147
longitude:       -147.3536
depth:           2.1220
Mrr:        -1.459000e+22
Mtt:        -1.204000e+22
Mpp:         2.663000e+22
Mrt:         4.234000e+22
Mrp:         3.078000e+22
Mtp:        -1.900000e+23
PDE 2002 11  3 22 12 41.00  63.52  -147.44   5.0 7.9 8.0 Denali, US
event name:      174715B_130
time shift:        19.8000
half duration:      1.2000
latitude:          63.4796
longitude:       -146.1354
depth:           9.8480
Mrr:        -4.376000e+24
Mtt:        -1.440000e+25
Mpp:         1.878000e+25
Mrt:         1.257000e+25
Mrp:        -1.663000e+24
Mtp:        -1.574000e+25
PDE 2002 11  3 22 12 41.00  63.52  -147.44   5.0 7.9 8.0 Denali, US
event name:      174715B_131
time shift:        19.8000
half duration:      1.2000
latitude:          63.4740
longitude:       -146.1416
depth:           5.9090
Mrr:        -6.148000e+24
Mtt:        -1.534000e+25
Mpp:         2.149000e+25
Mrt:         1.718000e+25
Mrp:        -3.320000e+24
Mtp:        -1.829000e+25
PDE 2002 11  3 22 12 41.00  63.52  -147.44   5.0 7.9 8.0 Denali, US
event name:      174715B_132
time shift:        20.8000
half duration:      3.8000
latitude:          63.5176
longitude:       -146.4424
depth:          21.8200
Mrr:         3.072000e+24
Mtt:        -4.524000e+24
Mpp:         1.452000e+24
Mrt:        -8.289000e+24
Mrp:         2.443000e+24
Mtp:        -1.022000e+25
PDE 2002 11  3 22 12 41.00  63.52  -147.44   5.0 7.9 8.0 Denali, US
event name:      174715B_133
time shift:        21.0000
half duration:      1.6000
latitude:          63.4684
longitude:       -146.1477
depth:           1.9700
Mrr:        -5.090000e+24
Mtt:        -9.652000e+24
Mpp:         1.474000e+25
Mrt:         1.392000e+25
Mrp:        -3.362000e+24
Mtp:        -1.276000e+25
PDE 2002 11  3 22 12 41.00  63.52  -147.44   5.0 7.9 8.0 Denali, US
event name:      174715B_134
time shift:        21.4000
half duration:      1.2000
latitude:          63.4655
longitude:       -146.0388
depth:          13.7900
Mrr:        -5.446000e+24
Mtt:        -1.033000e+25
Mpp:         1.577000e+25
Mrt:         1.489000e+25
Mrp:        -3.598000e+24
Mtp:        -1.365000e+25
PDE 2002 11  3 22 12 41.00  63.52  -147.44   5.0 7.9 8.0 Denali, US
event name:      174715B_135
time shift:        21.4000
half duration:      1.2000
latitude:          63.4599
longitude:       -146.0449
depth:           9.8480
Mrr:        -7.260000e+24
Mtt:        -1.377000e+25
Mpp:         2.103000e+25
Mrt:         1.985000e+25
Mrp:        -4.796000e+24
Mtp:        -1.820000e+25
PDE 2002 11  3 22 12 41.00  63.52  -147.44   5.0 7.9 8.0 Denali, US
event name:      174715B_136
time shift:        21.4000
half duration:      2.0000
latitude:          63.5113
longitude:       -146.2410
depth:          21.8200
Mrr:         1.920000e+24
Mtt:        -2.827000e+24
Mpp:         9.075000e+23
Mrt:        -5.181000e+24
Mrp:         1.527000e+24
Mtp:        -6.390000e+24
PDE 2002 11  3 22 12 41.00  63.52  -147.44   5.0 7.9 8.0 Denali, US
event name:      174715B_137
time shift:        21.4000
half duration:      2.2000
latitude:          63.5175
longitude:       -146.2400
depth:          25.7600
Mrr:         4.106000e+24
Mtt:        -6.251000e+24
Mpp:         2.145000e+24
Mrt:        -1.106000e+25
Mrp:         3.523000e+24
Mtp:        -1.512000e+25
PDE 2002 11  3 22 12 41.00  63.52  -147.44   5.0 7.9 8.0 Denali, US
event name:      174715B_138
time shift:        21.6000
half duration:      2.6000
latitude:          63.4909
longitude:       -146.1231
depth:          17.7300
Mrr:        -7.843000e+22
Mtt:        -7.329000e+24
Mpp:         7.407000e+24
Mrt:         9.188000e+23
Mrp:         1.392000e+24
Mtp:        -5.806000e+24
PDE 2002 11  3 22 12 41.00  63.52  -147.44   5.0 7.9 8.0 Denali, US
event name:      174715B_139
time shift:        21.6000
half duration:      4.2000
latitude:          63.5238
longitude:       -146.4414
depth:          25.7600
Mrr:         6.543000e+24
Mtt:        -9.635000e+24
Mpp:         3.093000e+24
Mrt:        -1.766000e+25
Mrp:         5.203000e+24
Mtp:        -2.178000e+25
PDE 2002 11  3 22 12 41.00  63.52  -147.44   5.0 7.9 8.0 Denali, US
event name:      174715B_14
time shift:         5.2000
half duration:      1.4000
latitude:          63.4867
longitude:       -147.6427
depth:           7.4800
Mrr:         2.085000e+25
Mtt:        -2.139000e+25
Mpp:         5.370000e+23
Mrt:         1.083000e+25
Mrp:        -3.994000e+24
Mtp:         4.074000e+23
PDE 2002 11  3 22 12 41.00  63.52  -147.44   5.0 7.9 8.0 Denali, US
event name:      174715B_140
time shift:        21.8000
half duration:      1.4000
latitude:          63.4767
longitude:       -146.0264
depth:          21.6700
Mrr:         1.233000e+24
Mtt:        -1.370000e+25
Mpp:         1.247000e+25
Mrt:        -1.798000e+24
Mrp:         4.040000e+24
Mtp:        -9.442000e+24
PDE 2002 11  3 22 12 41.00  63.52  -147.44   5.0 7.9 8.0 Denali, US
event name:      174715B_141
time shift:        21.8000
half duration:      1.6000
latitude:          63.4543
longitude:       -146.0510
depth:           5.9090
Mrr:        -8.377000e+24
Mtt:        -1.588000e+25
Mpp:         2.426000e+25
Mrt:         2.291000e+25
Mrp:        -5.533000e+24
Mtp:        -2.100000e+25
PDE 2002 11  3 22 12 41.00  63.52  -147.44   5.0 7.9 8.0 Denali, US
event name:      174715B_142
time shift:        21.8000
half duration:      1.6000
latitude:          63.4487
longitude:       -146.0571
depth:           1.9700
Mrr:        -5.587000e+24
Mtt:        -1.059000e+25
Mpp:         1.618000e+25
Mrt:         1.528000e+25
Mrp:        -3.691000e+24
Mtp:        -1.401000e+25
PDE 2002 11  3 22 12 41.00  63.52  -147.44   5.0 7.9 8.0 Denali, US
event name:      174715B_143
time shift:        21.8000
half duration:      2.8000
latitude:          63.5207
longitude:       -146.3408
depth:          25.7600
Mrr:         5.338000e+24
Mtt:        -8.127000e+24
Mpp:         2.788000e+24
Mrt:        -1.438000e+25
Mrp:         4.580000e+24
Mtp:        -1.965000e+25
PDE 2002 11  3 22 12 41.00  63.52  -147.44   5.0 7.9 8.0 Denali, US
event name:      174715B_144
time shift:        22.0000
half duration:      4.0000
latitude:          63.5144
longitude:       -146.3417
depth:          21.8200
Mrr:         2.688000e+24
Mtt:        -3.958000e+24
Mpp:         1.270000e+24
Mrt:        -7.253000e+24
Mrp:         2.137000e+24
Mtp:        -8.946000e+24
PDE 2002 11  3 22 12 41.00  63.52  -147.44   5.0 7.9 8.0 Denali, US
event name:      174715B_145
time shift:        22.2000
half duration:      1.8000
latitude:          63.4711
longitude:       -146.0326
depth:          17.7300
Mrr:        -1.612000e+24
Mtt:        -8.382000e+24
Mpp:         9.994000e+24
Mrt:         4.931000e+24
Mrp:         6.230000e+21
Mtp:        -8.201000e+24
PDE 2002 11  3 22 12 41.00  63.52  -147.44   5.0 7.9 8.0 Denali, US
event name:      174715B_146
time shift:        23.0000
half duration:      1.2000
latitude:          63.4458
longitude:       -145.9481
depth:          13.7900
Mrr:        -5.027000e+24
Mtt:        -9.533000e+24
Mpp:         1.456000e+25
Mrt:         1.375000e+25
Mrp:        -3.321000e+24
Mtp:        -1.260000e+25
PDE 2002 11  3 22 12 41.00  63.52  -147.44   5.0 7.9 8.0 Denali, US
event name:      174715B_147
time shift:        23.0000
half duration:      3.0000
latitude:          63.4965
longitude:       -146.1170
depth:          21.6700
Mrr:         1.711000e+24
Mtt:        -1.033000e+25
Mpp:         8.623000e+24
Mrt:        -3.348000e+24
Mrp:         3.862000e+24
Mtp:        -6.320000e+24
PDE 2002 11  3 22 12 41.00  63.52  -147.44   5.0 7.9 8.0 Denali, US
event name:      174715B_148
time shift:        23.2000
half duration:      1.2000
latitude:          63.4570
longitude:       -145.9359
depth:          21.6700
Mrr:         8.415000e+23
Mtt:        -1.190000e+25
Mpp:         1.106000e+25
Mrt:        -9.771000e+23
Mrp:         3.271000e+24
Mtp:        -8.437000e+24
PDE 2002 11  3 22 12 41.00  63.52  -147.44   5.0 7.9 8.0 Denali, US
event name:      174715B_149
time shift:        23.2000
half duration:      1.4000
latitude:          63.4514
longitude:       -145.9420
depth:          17.7300
Mrr:        -2.761000e+24
Mtt:        -6.011000e+24
Mpp:         8.772000e+24
Mrt:         7.626000e+24
Mrp:        -1.668000e+24
Mtp:        -7.527000e+24
PDE 2002 11  3 22 12 41.00  63.52  -147.44   5.0 7.9 8.0 Denali, US
event name:      174715B_15
time shift:         5.4000
half duration:      1.8000
latitude:          63.5271
longitude:       -147.1493
depth:          13.9400
Mrr:         2.095000e+24
Mtt:        -3.085000e+24
Mpp:         9.902000e+23
Mrt:        -5.653000e+24
Mrp:         1.666000e+24
Mtp:        -6.972000e+24
PDE 2002 11  3 22 12 41.00  63.52  -147.44   5.0 7.9 8.0 Denali, US
event name:      174715B_150
time shift:        23.2000
half duration:      1.8000
latitude:          63.4824
longitude:       -146.0203
depth:          25.6100
Mrr:         3.888000e+24
Mtt:        -2.348000e+25
Mpp:         1.959000e+25
Mrt:        -7.606000e+24
Mrp:         8.774000e+24
Mtp:        -1.436000e+25
PDE 2002 11  3 22 12 41.00  63.52  -147.44   5.0 7.9 8.0 Denali, US
event name:      174715B_151
time shift:        23.4000
half duration:      1.6000
latitude:          63.4345
longitude:       -145.9604
depth:           5.9090
Mrr:        -9.075000e+24
Mtt:        -1.721000e+25
Mpp:         2.628000e+25
Mrt:         2.482000e+25
Mrp:        -5.995000e+24
Mtp:        -2.275000e+25
PDE 2002 11  3 22 12 41.00  63.52  -147.44   5.0 7.9 8.0 Denali, US
event name:      174715B_152
time shift:        23.6000
half duration:      1.6000
latitude:          63.5021
longitude:       -146.1109
depth:          25.6100
Mrr:         3.596000e+24
Mtt:        -1.948000e+25
Mpp:         1.589000e+25
Mrt:        -7.254000e+24
Mrp:         7.665000e+24
Mtp:        -1.153000e+25
PDE 2002 11  3 22 12 41.00  63.52  -147.44   5.0 7.9 8.0 Denali, US
event name:      174715B_153
time shift:        24.0000
half duration:      1.4000
latitude:          63.4290
longitude:       -145.9666
depth:           1.9700
Mrr:        -6.424000e+24
Mtt:        -1.218000e+25
Mpp:         1.860000e+25
Mrt:         1.757000e+25
Mrp:        -4.243000e+24
Mtp:        -1.610000e+25
PDE 2002 11  3 22 12 41.00  63.52  -147.44   5.0 7.9 8.0 Denali, US
event name:      174715B_154
time shift:        24.0000
half duration:      1.6000
latitude:          63.4402
longitude:       -145.9543
depth:           9.8480
Mrr:        -7.623000e+24
Mtt:        -1.446000e+25
Mpp:         2.208000e+25
Mrt:         2.085000e+25
Mrp:        -5.036000e+24
Mtp:        -1.911000e+25
PDE 2002 11  3 22 12 41.00  63.52  -147.44   5.0 7.9 8.0 Denali, US
event name:      174715B_155
time shift:        24.2000
half duration:      4.0000
latitude:          63.4801
longitude:       -146.2459
depth:           2.1220
Mrr:        -1.666000e+24
Mtt:         7.798000e+23
Mpp:         8.865000e+23
Mrt:         4.645000e+24
Mrp:         7.908000e+23
Mtp:        -6.366000e+24
PDE 2002 11  3 22 12 41.00  63.52  -147.44   5.0 7.9 8.0 Denali, US
event name:      174715B_156
time shift:        24.6000
half duration:      1.2000
latitude:          63.4261
longitude:       -145.8576
depth:          13.7900
Mrr:        -2.583000e+24
Mtt:        -6.446000e+24
Mpp:         9.029000e+24
Mrt:         7.216000e+24
Mrp:        -1.395000e+24
Mtp:        -7.685000e+24
PDE 2002 11  3 22 12 41.00  63.52  -147.44   5.0 7.9 8.0 Denali, US
event name:      174715B_157
time shift:        24.6000
half duration:      1.4000
latitude:          63.4682
longitude:       -145.9237
depth:          29.5400
Mrr:         6.804000e+24
Mtt:        -2.390000e+25
Mpp:         1.709000e+25
Mrt:        -1.500000e+25
Mrp:         1.190000e+25
Mtp:        -1.169000e+25
PDE 2002 11  3 22 12 41.00  63.52  -147.44   5.0 7.9 8.0 Denali, US
event name:      174715B_158
time shift:        24.8000
half duration:      1.4000
latitude:          63.4092
longitude:       -145.8760
depth:           1.9700
Mrr:        -6.639000e+24
Mtt:        -1.259000e+25
Mpp:         1.923000e+25
Mrt:         1.815000e+25
Mrp:        -4.385000e+24
Mtp:        -1.664000e+25
PDE 2002 11  3 22 12 41.00  63.52  -147.44   5.0 7.9 8.0 Denali, US
event name:      174715B_159
time shift:        24.8000
half duration:      1.6000
latitude:          63.4880
longitude:       -146.0141
depth:          29.5400
Mrr:         6.804000e+24
Mtt:        -2.390000e+25
Mpp:         1.709000e+25
Mrt:        -1.500000e+25
Mrp:         1.190000e+25
Mtp:        -1.169000e+25
PDE 2002 11  3 22 12 41.00  63.52  -147.44   5.0 7.9 8.0 Denali, US
event name:      174715B_16
time shift:         5.4000
half duration:      2.6000
latitude:          63.5660
longitude:       -147.3619
depth:          11.7200
Mrr:         5.974000e+23
Mtt:        -6.419000e+23
Mpp:         4.448000e+22
Mrt:         3.338000e+23
Mrp:        -2.817000e+23
Mtp:         1.131000e+23
PDE 2002 11  3 22 12 41.00  63.52  -147.44   5.0 7.9 8.0 Denali, US
event name:      174715B_160
time shift:        25.4000
half duration:      4.2000
latitude:          63.5238
longitude:       -146.2390
depth:          29.7000
Mrr:         5.670000e+24
Mtt:        -8.351000e+24
Mpp:         2.680000e+24
Mrt:        -1.530000e+25
Mrp:         4.509000e+24
Mtp:        -1.887000e+25
PDE 2002 11  3 22 12 41.00  63.52  -147.44   5.0 7.9 8.0 Denali, US
event name:      174715B_161
time shift:        25.8000
half duration:      1.2000
latitude:          63.4627
longitude:       -145.9298
depth:          25.6100
Mrr:         5.758000e+24
Mtt:        -2.022000e+25
Mpp:         1.446000e+25
Mrt:        -1.269000e+25
Mrp:         1.007000e+25
Mtp:        -9.895000e+24
PDE 2002 11  3 22 12 41.00  63.52  -147.44   5.0 7.9 8.0 Denali, US
event name:      174715B_162
time shift:        26.0000
half duration:      1.2000
latitude:          63.4485
longitude:       -145.8331
depth:          29.5400
Mrr:         3.664000e+24
Mtt:        -1.287000e+25
Mpp:         9.203000e+24
Mrt:        -8.076000e+24
Mrp:         6.405000e+24
Mtp:        -6.297000e+24
PDE 2002 11  3 22 12 41.00  63.52  -147.44   5.0 7.9 8.0 Denali, US
event name:      174715B_163
time shift:        26.2000
half duration:      1.2000
latitude:          63.3895
longitude:       -145.7854
depth:           1.9700
Mrr:        -6.038000e+24
Mtt:        -1.145000e+25
Mpp:         1.749000e+25
Mrt:         1.651000e+25
Mrp:        -3.989000e+24
Mtp:        -1.514000e+25
PDE 2002 11  3 22 12 41.00  63.52  -147.44   5.0 7.9 8.0 Denali, US
event name:      174715B_164
time shift:        26.8000
half duration:      1.8000
latitude:          63.3951
longitude:       -145.7793
depth:           5.9090
Mrr:        -6.148000e+24
Mtt:        -1.534000e+25
Mpp:         2.149000e+25
Mrt:         1.718000e+25
Mrp:        -3.320000e+24
Mtp:        -1.829000e+25
PDE 2002 11  3 22 12 41.00  63.52  -147.44   5.0 7.9 8.0 Denali, US
event name:      174715B_165
time shift:        26.8000
half duration:      4.0000
latitude:          63.5077
longitude:       -146.1048
depth:          29.5400
Mrr:         5.234000e+24
Mtt:        -1.838000e+25
Mpp:         1.315000e+25
Mrt:        -1.154000e+25
Mrp:         9.151000e+24
Mtp:        -8.996000e+24
PDE 2002 11  3 22 12 41.00  63.52  -147.44   5.0 7.9 8.0 Denali, US
event name:      174715B_166
time shift:        27.6000
half duration:      3.8000
latitude:          63.4148
longitude:       -145.8699
depth:           5.9090
Mrr:        -8.377000e+24
Mtt:        -1.588000e+25
Mpp:         2.426000e+25
Mrt:         2.291000e+25
Mrp:        -5.533000e+24
Mtp:        -2.100000e+25
PDE 2002 11  3 22 12 41.00  63.52  -147.44   5.0 7.9 8.0 Denali, US
event name:      174715B_167
time shift:        27.8000
half duration:      1.2000
latitude:          63.3698
longitude:       -145.6949
depth:           1.9700
Mrr:        -5.093000e+24
Mtt:        -1.109000e+25
Mpp:         1.618000e+25
Mrt:         1.407000e+25
Mrp:        -3.077000e+24
Mtp:        -1.388000e+25
PDE 2002 11  3 22 12 41.00  63.52  -147.44   5.0 7.9 8.0 Denali, US
event name:      174715B_168
time shift:        28.0000
half duration:      1.4000
latitude:          63.4007
longitude:       -145.7731
depth:           9.8480
Mrr:        -2.697000e+24
Mtt:        -1.193000e+25
Mpp:         1.463000e+25
Mrt:         8.043000e+24
Mrp:        -4.107000e+23
Mtp:        -1.208000e+25
PDE 2002 11  3 22 12 41.00  63.52  -147.44   5.0 7.9 8.0 Denali, US
event name:      174715B_169
time shift:        28.2000
half duration:      2.2000
latitude:          63.4205
longitude:       -145.8637
depth:           9.8480
Mrr:        -5.468000e+24
Mtt:        -1.190000e+25
Mpp:         1.737000e+25
Mrt:         1.510000e+25
Mrp:        -3.303000e+24