PDE 2004 02 01 13 21 15.60 -16.4200  168.2100  33.0 6.4 7.3 VINNIK SDIFF
event name:     010204G
time shift:      0.0000
half duration:   0.0000
latitude:        0.0000
longitude:     -50.0000
depth:         600.0000
Mrr:      0.5834e+20
Mtt:     -0.3857e+20
Mpp:     -0.1977e+20
Mrt:     -0.6196e+20
Mrp:      0.5238e+20
Mtp:      0.2787e+20
