
# forward or adjoint simulation
SIMULATION_TYPE                 = 3
NOISE_TOMOGRAPHY                = 3        # flag of noise tomography, three steps (1,2,3). If earthquake simulation, set it to 0.
SAVE_FORWARD                    = .false.  # save last frame of forward simulation or not

# number of chunks (1,2,3 or 6)
NCHUNKS                         = 6

# angular width of the first chunk (not used if full sphere with six chunks)
ANGULAR_WIDTH_XI_IN_DEGREES   = 90.d0      # angular size of a chunk
ANGULAR_WIDTH_ETA_IN_DEGREES  = 90.d0
CENTER_LATITUDE_IN_DEGREES    =  0.d0
CENTER_LONGITUDE_IN_DEGREES   = 15.d0
GAMMA_ROTATION_AZIMUTH        =  0.d0

# number of elements at the surface along the two sides of the first chunk
# (must be multiple of 16 and 8 * multiple of NPROC below)
NEX_XI                          = 160
NEX_ETA                         = 160

# number of MPI processors along the two sides of the first chunk
NPROC_XI                        = 10
NPROC_ETA                       = 10

# 1D models with real structure:
# 1D_isotropic_prem, 1D_transversely_isotropic_prem, 1D_iasp91, 1D_1066a, 1D_ak135f_no_mud, 1D_ref, 1D_ref_iso, 1D_jp3d,1D_sea99
#
# 1D models with only one fictitious averaged crustal layer:
# 1D_isotropic_prem_onecrust, 1D_transversely_isotropic_prem_onecrust, 1D_iasp91_onecrust, 1D_1066a_onecrust, 1D_ak135f_no_mud_onecrust
#
# fully 3D models:
# transversely_isotropic_prem_plus_3D_crust_2.0, 3D_anisotropic, 3D_attenuation,
# s20rts, s40rts, s362ani, s362iso, s362wmani, s362ani_prem, s362ani_3DQ, s362iso_3DQ,
# s29ea, s29ea,sea99_jp3d1994,sea99,jp3d1994,heterogen
#
# 3D models with 1D crust: append "_1Dcrust" the the 3D model name
#                          to take the 1D crustal model from the
#                          associated reference model rather than the default 3D crustal model
# e.g. s20rts_1Dcrust, s362ani_1Dcrust, etc.
MODEL                           = 1D_isotropic_prem

# parameters describing the Earth model
OCEANS                          = .false.
ELLIPTICITY                     = .false.
TOPOGRAPHY                      = .false.
GRAVITY                         = .false.
ROTATION                        = .false.
ATTENUATION                     = .false.

# absorbing boundary conditions for a regional simulation
ABSORBING_CONDITIONS            = .false.

# record length in minutes
RECORD_LENGTH_IN_MINUTES        =  50.0d0

# to undo attenuation for sensitivity kernel calculations or forward runs with SAVE_FORWARD
# use one (and only one) of the two flags below. UNDO_ATTENUATION is much better (it is exact)
# but requires a significant amount of disk space for temporary storage.
ATTENUATION_1D_WITH_3D_STORAGE  = .true.
PARTIAL_PHYS_DISPERSION_ONLY    = .false.
UNDO_ATTENUATION                = .false.
# How much memory (in GB) is installed on your machine per CPU core (only used for UNDO_ATTENUATION, can be ignored otherwise)
#         (or per GPU card or per INTEL MIC Phi board)
#   (beware, this value MUST be given per core, i.e. per MPI thread, i.e. per MPI rank, NOT per node)
#   (this value is for instance:
#   -  4 GB on Tiger at Princeton
#   -  4 GB or 2 GB on the non-GPU part of Titan at ORNL i.e. when using CPUs only there
#             depending on whether you use 8 or 16 MPI tasks per compute node
#   - 32 GB on the GPU part of Titan at ORNL
#   -  2 GB on the machine used by Christina Morency
#   -  2 GB on the TACC machine used by Min Chen
#   -  1.5 GB on the GPU cluster in Marseille)
MEMORY_INSTALLED_PER_CORE_IN_GB = 4.d0
# What percentage of this total do you allow us to use for arrays to undo attenuation, keeping in mind that you
# need to leave some memory available for the GNU/Linux system to run
#   (a typical value is 85%; any value below is fine but the code will then save a lot of data to disk;
#    values above, say 90% or 92%, can be OK on some systems but can make the adjoint code run out of memory
#    on other systems, depending on how much memory per node the GNU/Linux system needs for itself; thus you can try
#    a higher value and if the adjoint crashes then try again with a lower value)
PERCENT_OF_MEM_TO_USE_PER_CORE  = 85.d0

# three mass matrices instead of one are needed to handle rotation very accurately;
# otherwise rotation is handled slightly less accurately (but still reasonably well);
# set to .true. if you are interested in precise effects related to rotation;
# set to .false. if you are solving very large inverse problems at high frequency and also undoing attenuation exactly
# using the UNDO_ATTENUATION flag above, in which case saving as much memory as possible can be a good idea.
# You can also safely set it to .false. if you are not in a period range in which rotation matters, e.g. if you are targetting very short-period body waves.
# if in doubt, set to .true.
# Set it to .true. if you have ABSORBING_CONDITIONS above, because in that case the code will use the three mass matrices anyway
# and thus there is no additional cost.
# this flag is of course unused if ROTATION above is set to .false.
EXACT_MASS_MATRIX_FOR_ROTATION  = .false.

# this for LDDRK high-order time scheme instead of Newmark
USE_LDDRK                       = .false.

# the maximum CFL of LDDRK is significantly higher than that of the Newmark scheme,
# in a ratio that is theoretically 1.327 / 0.697 = 1.15 / 0.604 = 1.903 for a solid with Poisson's ratio = 0.25
# and for a fluid (see the manual of the 2D code, SPECFEM2D, Tables 4.1 and 4.2, and that ratio does not
# depend on whether we are in 2D or in 3D). However in practice a ratio of about 1.5 to 1.7 is often safer
# (for instance for models with a large range of Poisson's ratio values).
# Since the code computes the time step using the Newmark scheme, for LDDRK we will simply
# multiply that time step by this ratio when LDDRK is on and when flag INCREASE_CFL_FOR_LDDRK is true.
INCREASE_CFL_FOR_LDDRK          = .true.
RATIO_BY_WHICH_TO_INCREASE_IT   = 1.5d0

# save AVS or OpenDX movies
#MOVIE_COARSE saves movie only at corners of elements (SURFACE OR VOLUME)
#MOVIE_COARSE does not work with create_movie_AVS_DX
MOVIE_SURFACE                   = .true.
MOVIE_VOLUME                    = .false.
MOVIE_COARSE                    = .false.
NTSTEP_BETWEEN_FRAMES           = 2500
HDUR_MOVIE                      = 0.d0

# save movie in volume.  Will save element if center of element is in prescribed volume
# top/bottom: depth in KM, use MOVIE_TOP = -100 to make sure the surface is stored.
# west/east: longitude, degrees East [-180/180] top/bottom: latitute, degrees North [-90/90]
# start/stop: frames will be stored at MOVIE_START + i*NSTEP_BETWEEN_FRAMES, where i=(0,1,2..) and iNSTEP_BETWEEN_FRAMES <= MOVIE_STOP
# movie_volume_type: 1=strain, 2=time integral of strain, 3=\mu*time integral of strain
# type 4 saves the trace and deviatoric stress in the whole volume, 5=displacement, 6=velocity
MOVIE_VOLUME_TYPE               = 2
MOVIE_TOP_KM                    = -100.0
MOVIE_BOTTOM_KM                 = 1000.0
MOVIE_WEST_DEG                  = -90.0
MOVIE_EAST_DEG                  = 90.0
MOVIE_NORTH_DEG                 = 90.0
MOVIE_SOUTH_DEG                 = -90.0
MOVIE_START                     = 0
MOVIE_STOP                      = 40000

# save mesh files to check the mesh
SAVE_MESH_FILES                 = .false.

# restart files (number of runs can be 1 or higher, choose 1 for no restart files)
NUMBER_OF_RUNS                  = 1
NUMBER_OF_THIS_RUN              = 1

# path to store the local database files on each node
LOCAL_PATH                      = /scratch/yangl/DATABASES_MPI
# temporary wavefield/kernel/movie files
LOCAL_TMP_PATH                  = ./DATABASES_MPI

# interval at which we output time step info and max of norm of displacement
NTSTEP_BETWEEN_OUTPUT_INFO      = 10000

# interval in time steps for temporary writing of seismograms
NTSTEP_BETWEEN_OUTPUT_SEISMOS   = 5000000
NTSTEP_BETWEEN_READ_ADJSRC      = 1000

# output format for the seismograms (one can use either or all of the three formats)
OUTPUT_SEISMOS_ASCII_TEXT       = .true.
OUTPUT_SEISMOS_SAC_ALPHANUM     = .false.
OUTPUT_SEISMOS_SAC_BINARY       = .false.
OUTPUT_SEISMOS_ASDF             = .false.

# rotate seismograms to Radial-Transverse-Z or use default North-East-Z reference frame
ROTATE_SEISMOGRAMS_RT           = .false.

# decide if master process writes all the seismograms or if all processes do it in parallel
WRITE_SEISMOGRAMS_BY_MASTER     = .true.

# save all seismograms in one large combined file instead of one file per seismogram
# to avoid overloading shared non-local file systems such as GPFS for instance
SAVE_ALL_SEISMOS_IN_ONE_FILE    = .false.
USE_BINARY_FOR_LARGE_FILE       = .false.

# flag to impose receivers at the surface or allow them to be buried
RECEIVERS_CAN_BE_BURIED         = .true.

# print source time function
PRINT_SOURCE_TIME_FUNCTION      = .true.

#-----------------------------------------------------------
#
#  adjoint kernel outputs
#
#-----------------------------------------------------------

# this parameter must be set to .true. to compute anisotropic kernels
# in crust and mantle (related to the 21 Cij in geographical coordinates)
# default is .false. to compute isotropic kernels (related to alpha and beta)
ANISOTROPIC_KL                  = .false.

# output only transverse isotropic kernels (alpha_v,alpha_h,beta_v,beta_h,eta,rho)
# rather than fully anisotropic kernels when ANISOTROPIC_KL above is set to .true.
# means to save radial anisotropic kernels, i.e., sensitivity kernels for beta_v, beta_h, etc.
SAVE_TRANSVERSE_KL_ONLY         = .false.

# output approximate Hessian in crust mantle region.
# means to save the preconditioning for gradients, they are cross correlations between forward and adjoint accelerations.
APPROXIMATE_HESS_KL             = .false.

# forces transverse isotropy for all mantle elements
# (default is to use transverse isotropy only between MOHO and 220)
# means we allow radial anisotropy between the bottom of the crust to the bottom of the transition zone, i.e., 660~km depth.
USE_FULL_TISO_MANTLE            = .false.

# output kernel mask to zero out source region
# to remove large values near the sources in the sensitivity kernels
SAVE_SOURCE_MASK                = .false.

# output kernels on a regular grid instead of on the GLL mesh points (a bit expensive)
SAVE_REGULAR_KL                 = .false.

#-----------------------------------------------------------

# set to true to use GPUs
GPU_MODE                        = .false.

# set to true to use the ADIOS library for I/Os
ADIOS_ENABLED                   = .false.
ADIOS_FOR_FORWARD_ARRAYS        = .true.
ADIOS_FOR_MPI_ARRAYS            = .true.
ADIOS_FOR_ARRAYS_SOLVER         = .true.
ADIOS_FOR_SOLVER_MESHFILES      = .true.
ADIOS_FOR_AVS_DX                = .true.
ADIOS_FOR_KERNELS               = .true.
ADIOS_FOR_MODELS                = .true.

