PDE 1994  6  9  0 33 16.40 -13.8300  -67.5600 637.0 6.9 6.8 NORTHERN BOLIVIA                        
event name:     060994A        
time shift:      0.0000
half duration:   0.0000
latitude:        0.0000
longitude:       0.0000
depth:           0.0000
Mrr:      0.0
Mtt:      0.0
Mpp:      0.0
Mrt:      0.0
Mrp:      0.0
Mtp:      0.0
